version 2
run Default-0-20240110-16:37:11-29357
attr configname Default
attr datetime 20240110-16:37:11
attr experiment Default
attr inifile omnetpp.ini
attr iterationvars ""
attr iterationvarsf ""
attr measurement ""
attr network RSUExampleScenario3
attr processid 29357
attr repetition 0
attr replication #0
attr resultdir results
attr runnumber 0
attr seedset 0
param *.playgroundSizeX 4000m
param *.playgroundSizeY 4000m
param *.playgroundSizeZ 50m
param *.annotations.draw true
param *.manager.updateInterval 1s
param *.manager.host "\"localhost\""
param *.manager.port 9999
param *.manager.autoShutdown true
param *.manager.launchConfig "xmldoc(\"lostest1.launchd.xml\")"
param *.rsu[0].mobility.x 1775
param *.rsu[0].mobility.y 1525
param *.rsu[0].mobility.z 3
param *.rsu[*].applType "\"TraCIDemoRSU11p\""
param *.rsu[*].appl.headerLength "80 bit"
param *.rsu[*].appl.sendBeacons false
param *.rsu[*].appl.dataOnSch false
param *.rsu[*].appl.beaconInterval 1s
param *.rsu[*].appl.beaconUserPriority 7
param *.rsu[*].appl.dataUserPriority 5
param *.rsu[*].nic.phy80211p.antennaOffsetZ "0 m"
param *.connectionManager.sendDirect true
param *.connectionManager.maxInterfDist 2600m
param *.connectionManager.drawMaxIntfDist false
param *.**.nic.mac1609_4.useServiceChannel false
param *.node[*].nic.mac1609_4.txPower 20mW
param *.rsu[*].nic.mac1609_4.txPower 15.5mW
param *.**.nic.mac1609_4.bitrate 6Mbps
param *.**.nic.phy80211p.minPowerLevel -89dBm
param *.**.nic.phy80211p.useNoiseFloor true
param *.**.nic.phy80211p.noiseFloor -98dBm
param *.**.nic.phy80211p.decider "xmldoc(\"config.xml\")"
param *.**.nic.phy80211p.analogueModels "xmldoc(\"config.xml\")"
param *.**.nic.phy80211p.usePropagationDelay true
param *.**.nic.phy80211p.antenna "xmldoc(\"antenna.xml\", \"/root/Antenna[@id='monopole']\")"
param *.node[*].nic.phy80211p.antennaOffsetY "0 m"
param *.node[*].nic.phy80211p.antennaOffsetZ "1.895 m"
param *.node[*].applType "\"MyVeinsApp\""
param *.node[*].appl.headerLength "80 bit"
param *.node[*].appl.sendBeacons false
param *.node[*].appl.dataOnSch false
param *.node[*].appl.beaconInterval 1s
param *.node[*].veinsmobility.x 0
param *.node[*].veinsmobility.y 0
param *.node[*].veinsmobility.z 0
param *.node[*].manager.routeFile "\"lostest1.rou.xml\""
param *.node[*].veinsmobility.setHostSpeed false
param *.node[0].veinsmobility.accidentCount 0
param *.node[0].veinsmobility.accidentStart 80s
param *.node[0].veinsmobility.accidentDuration 200s
param *.hacker[*].applType "\"MyVeinsApp\""
param *.hacker[*].appl.headerLength "80 bit"
param *.hacker[*].appl.sendBeacons true
param *.hacker[*].appl.dataOnSch false
param *.hacker[*].appl.beaconInterval 1s
param *.hacker[*].appl.beaconUserPriority 7
param *.hacker[*].appl.dataUserPriority 5
param *.hacker[*].nic.phy80211p.antennaOffsetZ "0 m"

scalar RSUExampleScenario3.node[0].appl generatedWSMs 165
scalar RSUExampleScenario3.node[0].appl receivedWSMs 154
scalar RSUExampleScenario3.node[0].appl generatedBSMs 0
scalar RSUExampleScenario3.node[0].appl receivedBSMs 0
scalar RSUExampleScenario3.node[0].appl generatedWSAs 0
scalar RSUExampleScenario3.node[0].appl receivedWSAs 0
scalar RSUExampleScenario3.node[0].nic.phy80211p busyTime 0.00061163636363636
scalar RSUExampleScenario3.node[0].nic.mac1609_4 ReceivedUnicastPackets 0
scalar RSUExampleScenario3.node[0].nic.mac1609_4 ReceivedBroadcasts 154
scalar RSUExampleScenario3.node[0].nic.mac1609_4 SentPackets 165
scalar RSUExampleScenario3.node[0].nic.mac1609_4 SentAcknowledgements 0
scalar RSUExampleScenario3.node[0].nic.mac1609_4 RetriesExceeded 0
scalar RSUExampleScenario3.node[0].nic.mac1609_4 SNIRLostPackets 281
scalar RSUExampleScenario3.node[0].nic.mac1609_4 RXTXLostPackets 419
scalar RSUExampleScenario3.node[0].nic.mac1609_4 TotalLostPackets 700
scalar RSUExampleScenario3.node[0].nic.mac1609_4 DroppedPacketsInMac 0
scalar RSUExampleScenario3.node[0].nic.mac1609_4 TooLittleTime 0
scalar RSUExampleScenario3.node[0].nic.mac1609_4 TimesIntoBackoff 165
scalar RSUExampleScenario3.node[0].nic.mac1609_4 SlotsBackoff 240
scalar RSUExampleScenario3.node[0].nic.mac1609_4 NumInternalContention 0
scalar RSUExampleScenario3.node[0].nic.mac1609_4 totalBusyTime 0.10573677352
scalar RSUExampleScenario3.node[0].nic.mac1609_4 retriesExceeded:count 0
attr source org_car2x_veins_modules_mac_sigRetriesExceeded
scalar RSUExampleScenario3.node[0].nic.mac1609_4 sentAcks:count 0
attr source org_car2x_veins_modules_mac_sigSentAck
scalar RSUExampleScenario3.node[0].nic.mac1609_4 sentPackets:count 165
attr source org_car2x_veins_modules_mac_sigSentPacket
scalar RSUExampleScenario3.node[0].nic.mac1609_4 collisions:count 0
attr source org_car2x_veins_modules_mac_sigCollision
scalar RSUExampleScenario3.node[0].nic.mac1609_4 channelBusy:timeavg 0.00064082893042424
attr source org_car2x_veins_modules_mac_sigChannelBusy
scalar RSUExampleScenario3.node[0].veinsmobility startTime 6
scalar RSUExampleScenario3.node[0].veinsmobility totalTime 164
scalar RSUExampleScenario3.node[0].veinsmobility stopTime 171
scalar RSUExampleScenario3.node[0].veinsmobility minSpeed 0
scalar RSUExampleScenario3.node[0].veinsmobility maxSpeed 23.684401911818
scalar RSUExampleScenario3.node[0].veinsmobility totalDistance 3484.8654208867
scalar RSUExampleScenario3.node[0].veinsmobility totalCO2Emission 655.80444101548
scalar RSUExampleScenario3.node[1].appl generatedWSMs 181
scalar RSUExampleScenario3.node[1].appl receivedWSMs 333
scalar RSUExampleScenario3.node[1].appl generatedBSMs 0
scalar RSUExampleScenario3.node[1].appl receivedBSMs 0
scalar RSUExampleScenario3.node[1].appl generatedWSAs 0
scalar RSUExampleScenario3.node[1].appl receivedWSAs 0
scalar RSUExampleScenario3.node[1].nic.phy80211p busyTime 0.0011318011049724
scalar RSUExampleScenario3.node[1].nic.mac1609_4 ReceivedUnicastPackets 0
scalar RSUExampleScenario3.node[1].nic.mac1609_4 ReceivedBroadcasts 333
scalar RSUExampleScenario3.node[1].nic.mac1609_4 SentPackets 181
scalar RSUExampleScenario3.node[1].nic.mac1609_4 SentAcknowledgements 0
scalar RSUExampleScenario3.node[1].nic.mac1609_4 RetriesExceeded 0
scalar RSUExampleScenario3.node[1].nic.mac1609_4 SNIRLostPackets 550
scalar RSUExampleScenario3.node[1].nic.mac1609_4 RXTXLostPackets 524
scalar RSUExampleScenario3.node[1].nic.mac1609_4 TotalLostPackets 1074
scalar RSUExampleScenario3.node[1].nic.mac1609_4 DroppedPacketsInMac 0
scalar RSUExampleScenario3.node[1].nic.mac1609_4 TooLittleTime 0
scalar RSUExampleScenario3.node[1].nic.mac1609_4 TimesIntoBackoff 181
scalar RSUExampleScenario3.node[1].nic.mac1609_4 SlotsBackoff 286
scalar RSUExampleScenario3.node[1].nic.mac1609_4 NumInternalContention 0
scalar RSUExampleScenario3.node[1].nic.mac1609_4 totalBusyTime 0.176504864639
scalar RSUExampleScenario3.node[1].nic.mac1609_4 retriesExceeded:count 0
attr source org_car2x_veins_modules_mac_sigRetriesExceeded
scalar RSUExampleScenario3.node[1].nic.mac1609_4 sentAcks:count 0
attr source org_car2x_veins_modules_mac_sigSentAck
scalar RSUExampleScenario3.node[1].nic.mac1609_4 sentPackets:count 181
attr source org_car2x_veins_modules_mac_sigSentPacket
scalar RSUExampleScenario3.node[1].nic.mac1609_4 collisions:count 0
attr source org_car2x_veins_modules_mac_sigCollision
scalar RSUExampleScenario3.node[1].nic.mac1609_4 channelBusy:timeavg 0.00097516499800553
attr source org_car2x_veins_modules_mac_sigChannelBusy
scalar RSUExampleScenario3.node[1].veinsmobility startTime 8
scalar RSUExampleScenario3.node[1].veinsmobility totalTime 180
scalar RSUExampleScenario3.node[1].veinsmobility stopTime 189
scalar RSUExampleScenario3.node[1].veinsmobility minSpeed 0
scalar RSUExampleScenario3.node[1].veinsmobility maxSpeed 30.996727266022
scalar RSUExampleScenario3.node[1].veinsmobility totalDistance 3240.2316561764
scalar RSUExampleScenario3.node[1].veinsmobility totalCO2Emission 667.97995735031
scalar RSUExampleScenario3.node[7].appl generatedWSMs 171
scalar RSUExampleScenario3.node[7].appl receivedWSMs 334
scalar RSUExampleScenario3.node[7].appl generatedBSMs 0
scalar RSUExampleScenario3.node[7].appl receivedBSMs 0
scalar RSUExampleScenario3.node[7].appl generatedWSAs 0
scalar RSUExampleScenario3.node[7].appl receivedWSAs 0
scalar RSUExampleScenario3.node[7].nic.phy80211p busyTime 0.0011681403508772
scalar RSUExampleScenario3.node[7].nic.mac1609_4 ReceivedUnicastPackets 0
scalar RSUExampleScenario3.node[7].nic.mac1609_4 ReceivedBroadcasts 334
scalar RSUExampleScenario3.node[7].nic.mac1609_4 SentPackets 171
scalar RSUExampleScenario3.node[7].nic.mac1609_4 SentAcknowledgements 0
scalar RSUExampleScenario3.node[7].nic.mac1609_4 RetriesExceeded 0
scalar RSUExampleScenario3.node[7].nic.mac1609_4 SNIRLostPackets 527
scalar RSUExampleScenario3.node[7].nic.mac1609_4 RXTXLostPackets 585
scalar RSUExampleScenario3.node[7].nic.mac1609_4 TotalLostPackets 1112
scalar RSUExampleScenario3.node[7].nic.mac1609_4 DroppedPacketsInMac 0
scalar RSUExampleScenario3.node[7].nic.mac1609_4 TooLittleTime 0
scalar RSUExampleScenario3.node[7].nic.mac1609_4 TimesIntoBackoff 171
scalar RSUExampleScenario3.node[7].nic.mac1609_4 SlotsBackoff 247
scalar RSUExampleScenario3.node[7].nic.mac1609_4 NumInternalContention 0
scalar RSUExampleScenario3.node[7].nic.mac1609_4 totalBusyTime 0.175103308891
scalar RSUExampleScenario3.node[7].nic.mac1609_4 retriesExceeded:count 0
attr source org_car2x_veins_modules_mac_sigRetriesExceeded
scalar RSUExampleScenario3.node[7].nic.mac1609_4 sentAcks:count 0
attr source org_car2x_veins_modules_mac_sigSentAck
scalar RSUExampleScenario3.node[7].nic.mac1609_4 sentPackets:count 171
attr source org_car2x_veins_modules_mac_sigSentPacket
scalar RSUExampleScenario3.node[7].nic.mac1609_4 collisions:count 0
attr source org_car2x_veins_modules_mac_sigCollision
scalar RSUExampleScenario3.node[7].nic.mac1609_4 channelBusy:timeavg 0.0010239959584269
attr source org_car2x_veins_modules_mac_sigChannelBusy
scalar RSUExampleScenario3.node[7].veinsmobility startTime 21
scalar RSUExampleScenario3.node[7].veinsmobility totalTime 170
scalar RSUExampleScenario3.node[7].veinsmobility stopTime 192
scalar RSUExampleScenario3.node[7].veinsmobility minSpeed 1.9338606172974
scalar RSUExampleScenario3.node[7].veinsmobility maxSpeed 30.183800646669
scalar RSUExampleScenario3.node[7].veinsmobility totalDistance 3227.9234065676
scalar RSUExampleScenario3.node[7].veinsmobility totalCO2Emission 612.58870273496
scalar RSUExampleScenario3.node[5].appl generatedWSMs 175
scalar RSUExampleScenario3.node[5].appl receivedWSMs 287
scalar RSUExampleScenario3.node[5].appl generatedBSMs 0
scalar RSUExampleScenario3.node[5].appl receivedBSMs 0
scalar RSUExampleScenario3.node[5].appl generatedWSAs 0
scalar RSUExampleScenario3.node[5].appl receivedWSAs 0
scalar RSUExampleScenario3.node[5].nic.phy80211p busyTime 0.0015378285714286
scalar RSUExampleScenario3.node[5].nic.mac1609_4 ReceivedUnicastPackets 0
scalar RSUExampleScenario3.node[5].nic.mac1609_4 ReceivedBroadcasts 287
scalar RSUExampleScenario3.node[5].nic.mac1609_4 SentPackets 175
scalar RSUExampleScenario3.node[5].nic.mac1609_4 SentAcknowledgements 0
scalar RSUExampleScenario3.node[5].nic.mac1609_4 RetriesExceeded 0
scalar RSUExampleScenario3.node[5].nic.mac1609_4 SNIRLostPackets 873
scalar RSUExampleScenario3.node[5].nic.mac1609_4 RXTXLostPackets 763
scalar RSUExampleScenario3.node[5].nic.mac1609_4 TotalLostPackets 1636
scalar RSUExampleScenario3.node[5].nic.mac1609_4 DroppedPacketsInMac 0
scalar RSUExampleScenario3.node[5].nic.mac1609_4 TooLittleTime 0
scalar RSUExampleScenario3.node[5].nic.mac1609_4 TimesIntoBackoff 175
scalar RSUExampleScenario3.node[5].nic.mac1609_4 SlotsBackoff 264
scalar RSUExampleScenario3.node[5].nic.mac1609_4 NumInternalContention 0
scalar RSUExampleScenario3.node[5].nic.mac1609_4 totalBusyTime 0.188566931234
scalar RSUExampleScenario3.node[5].nic.mac1609_4 retriesExceeded:count 0
attr source org_car2x_veins_modules_mac_sigRetriesExceeded
scalar RSUExampleScenario3.node[5].nic.mac1609_4 sentAcks:count 0
attr source org_car2x_veins_modules_mac_sigSentAck
scalar RSUExampleScenario3.node[5].nic.mac1609_4 sentPackets:count 175
attr source org_car2x_veins_modules_mac_sigSentPacket
scalar RSUExampleScenario3.node[5].nic.mac1609_4 collisions:count 0
attr source org_car2x_veins_modules_mac_sigCollision
scalar RSUExampleScenario3.node[5].nic.mac1609_4 channelBusy:timeavg 0.0010775253213372
attr source org_car2x_veins_modules_mac_sigChannelBusy
scalar RSUExampleScenario3.node[5].veinsmobility startTime 20
scalar RSUExampleScenario3.node[5].veinsmobility totalTime 174
scalar RSUExampleScenario3.node[5].veinsmobility stopTime 195
scalar RSUExampleScenario3.node[5].veinsmobility minSpeed 0
scalar RSUExampleScenario3.node[5].veinsmobility maxSpeed 34.003689447304
scalar RSUExampleScenario3.node[5].veinsmobility totalDistance 3202.7035544439
scalar RSUExampleScenario3.node[5].veinsmobility totalCO2Emission 737.45205512413
scalar RSUExampleScenario3.node[20].appl generatedWSMs 146
scalar RSUExampleScenario3.node[20].appl receivedWSMs 338
scalar RSUExampleScenario3.node[20].appl generatedBSMs 0
scalar RSUExampleScenario3.node[20].appl receivedBSMs 0
scalar RSUExampleScenario3.node[20].appl generatedWSAs 0
scalar RSUExampleScenario3.node[20].appl receivedWSAs 0
scalar RSUExampleScenario3.node[20].nic.phy80211p busyTime 0.0019100273972603
scalar RSUExampleScenario3.node[20].nic.mac1609_4 ReceivedUnicastPackets 0
scalar RSUExampleScenario3.node[20].nic.mac1609_4 ReceivedBroadcasts 338
scalar RSUExampleScenario3.node[20].nic.mac1609_4 SentPackets 146
scalar RSUExampleScenario3.node[20].nic.mac1609_4 SentAcknowledgements 0
scalar RSUExampleScenario3.node[20].nic.mac1609_4 RetriesExceeded 0
scalar RSUExampleScenario3.node[20].nic.mac1609_4 SNIRLostPackets 864
scalar RSUExampleScenario3.node[20].nic.mac1609_4 RXTXLostPackets 576
scalar RSUExampleScenario3.node[20].nic.mac1609_4 TotalLostPackets 1440
scalar RSUExampleScenario3.node[20].nic.mac1609_4 DroppedPacketsInMac 0
scalar RSUExampleScenario3.node[20].nic.mac1609_4 TooLittleTime 0
scalar RSUExampleScenario3.node[20].nic.mac1609_4 TimesIntoBackoff 146
scalar RSUExampleScenario3.node[20].nic.mac1609_4 SlotsBackoff 205
scalar RSUExampleScenario3.node[20].nic.mac1609_4 NumInternalContention 0
scalar RSUExampleScenario3.node[20].nic.mac1609_4 totalBusyTime 0.210107896221
scalar RSUExampleScenario3.node[20].nic.mac1609_4 retriesExceeded:count 0
attr source org_car2x_veins_modules_mac_sigRetriesExceeded
scalar RSUExampleScenario3.node[20].nic.mac1609_4 sentAcks:count 0
attr source org_car2x_veins_modules_mac_sigSentAck
scalar RSUExampleScenario3.node[20].nic.mac1609_4 sentPackets:count 146
attr source org_car2x_veins_modules_mac_sigSentPacket
scalar RSUExampleScenario3.node[20].nic.mac1609_4 collisions:count 0
attr source org_car2x_veins_modules_mac_sigCollision
scalar RSUExampleScenario3.node[20].nic.mac1609_4 channelBusy:timeavg 0.0014390951795959
attr source org_car2x_veins_modules_mac_sigChannelBusy
scalar RSUExampleScenario3.node[20].veinsmobility startTime 52
scalar RSUExampleScenario3.node[20].veinsmobility totalTime 145
scalar RSUExampleScenario3.node[20].veinsmobility stopTime 198
scalar RSUExampleScenario3.node[20].veinsmobility minSpeed 2.3463259991494
scalar RSUExampleScenario3.node[20].veinsmobility maxSpeed 25.232027462452
scalar RSUExampleScenario3.node[20].veinsmobility totalDistance 3479.8510826671
scalar RSUExampleScenario3.node[20].veinsmobility totalCO2Emission 627.64655353744
scalar RSUExampleScenario3.node[16].appl generatedWSMs 157
scalar RSUExampleScenario3.node[16].appl receivedWSMs 398
scalar RSUExampleScenario3.node[16].appl generatedBSMs 0
scalar RSUExampleScenario3.node[16].appl receivedBSMs 0
scalar RSUExampleScenario3.node[16].appl generatedWSAs 0
scalar RSUExampleScenario3.node[16].appl receivedWSAs 0
scalar RSUExampleScenario3.node[16].nic.phy80211p busyTime 0.0018619108280255
scalar RSUExampleScenario3.node[16].nic.mac1609_4 ReceivedUnicastPackets 0
scalar RSUExampleScenario3.node[16].nic.mac1609_4 ReceivedBroadcasts 398
scalar RSUExampleScenario3.node[16].nic.mac1609_4 SentPackets 157
scalar RSUExampleScenario3.node[16].nic.mac1609_4 SentAcknowledgements 0
scalar RSUExampleScenario3.node[16].nic.mac1609_4 RetriesExceeded 0
scalar RSUExampleScenario3.node[16].nic.mac1609_4 SNIRLostPackets 862
scalar RSUExampleScenario3.node[16].nic.mac1609_4 RXTXLostPackets 649
scalar RSUExampleScenario3.node[16].nic.mac1609_4 TotalLostPackets 1511
scalar RSUExampleScenario3.node[16].nic.mac1609_4 DroppedPacketsInMac 0
scalar RSUExampleScenario3.node[16].nic.mac1609_4 TooLittleTime 0
scalar RSUExampleScenario3.node[16].nic.mac1609_4 TimesIntoBackoff 157
scalar RSUExampleScenario3.node[16].nic.mac1609_4 SlotsBackoff 234
scalar RSUExampleScenario3.node[16].nic.mac1609_4 NumInternalContention 0
scalar RSUExampleScenario3.node[16].nic.mac1609_4 totalBusyTime 0.211047387966
scalar RSUExampleScenario3.node[16].nic.mac1609_4 retriesExceeded:count 0
attr source org_car2x_veins_modules_mac_sigRetriesExceeded
scalar RSUExampleScenario3.node[16].nic.mac1609_4 sentAcks:count 0
attr source org_car2x_veins_modules_mac_sigSentAck
scalar RSUExampleScenario3.node[16].nic.mac1609_4 sentPackets:count 157
attr source org_car2x_veins_modules_mac_sigSentPacket
scalar RSUExampleScenario3.node[16].nic.mac1609_4 collisions:count 0
attr source org_car2x_veins_modules_mac_sigCollision
scalar RSUExampleScenario3.node[16].nic.mac1609_4 channelBusy:timeavg 0.0013442508787643
attr source org_car2x_veins_modules_mac_sigChannelBusy
scalar RSUExampleScenario3.node[16].veinsmobility startTime 43
scalar RSUExampleScenario3.node[16].veinsmobility totalTime 156
scalar RSUExampleScenario3.node[16].veinsmobility stopTime 200
scalar RSUExampleScenario3.node[16].veinsmobility minSpeed 4.1748370939776
scalar RSUExampleScenario3.node[16].veinsmobility maxSpeed 31.729288157637
scalar RSUExampleScenario3.node[16].veinsmobility totalDistance 3236.9333356765
scalar RSUExampleScenario3.node[16].veinsmobility totalCO2Emission 651.24841780651
scalar RSUExampleScenario3.node[4].appl generatedWSMs 188
scalar RSUExampleScenario3.node[4].appl receivedWSMs 349
scalar RSUExampleScenario3.node[4].appl generatedBSMs 0
scalar RSUExampleScenario3.node[4].appl receivedBSMs 0
scalar RSUExampleScenario3.node[4].appl generatedWSAs 0
scalar RSUExampleScenario3.node[4].appl receivedWSAs 0
scalar RSUExampleScenario3.node[4].nic.phy80211p busyTime 0.0016141276595745
scalar RSUExampleScenario3.node[4].nic.mac1609_4 ReceivedUnicastPackets 0
scalar RSUExampleScenario3.node[4].nic.mac1609_4 ReceivedBroadcasts 349
scalar RSUExampleScenario3.node[4].nic.mac1609_4 SentPackets 188
scalar RSUExampleScenario3.node[4].nic.mac1609_4 SentAcknowledgements 0
scalar RSUExampleScenario3.node[4].nic.mac1609_4 RetriesExceeded 0
scalar RSUExampleScenario3.node[4].nic.mac1609_4 SNIRLostPackets 959
scalar RSUExampleScenario3.node[4].nic.mac1609_4 RXTXLostPackets 786
scalar RSUExampleScenario3.node[4].nic.mac1609_4 TotalLostPackets 1745
scalar RSUExampleScenario3.node[4].nic.mac1609_4 DroppedPacketsInMac 0
scalar RSUExampleScenario3.node[4].nic.mac1609_4 TooLittleTime 0
scalar RSUExampleScenario3.node[4].nic.mac1609_4 TimesIntoBackoff 188
scalar RSUExampleScenario3.node[4].nic.mac1609_4 SlotsBackoff 288
scalar RSUExampleScenario3.node[4].nic.mac1609_4 NumInternalContention 0
scalar RSUExampleScenario3.node[4].nic.mac1609_4 totalBusyTime 0.223145919859
scalar RSUExampleScenario3.node[4].nic.mac1609_4 retriesExceeded:count 0
attr source org_car2x_veins_modules_mac_sigRetriesExceeded
scalar RSUExampleScenario3.node[4].nic.mac1609_4 sentAcks:count 0
attr source org_car2x_veins_modules_mac_sigSentAck
scalar RSUExampleScenario3.node[4].nic.mac1609_4 sentPackets:count 188
attr source org_car2x_veins_modules_mac_sigSentPacket
scalar RSUExampleScenario3.node[4].nic.mac1609_4 collisions:count 0
attr source org_car2x_veins_modules_mac_sigCollision
scalar RSUExampleScenario3.node[4].nic.mac1609_4 channelBusy:timeavg 0.0011869463822287
attr source org_car2x_veins_modules_mac_sigChannelBusy
scalar RSUExampleScenario3.node[4].veinsmobility startTime 18
scalar RSUExampleScenario3.node[4].veinsmobility totalTime 187
scalar RSUExampleScenario3.node[4].veinsmobility stopTime 206
scalar RSUExampleScenario3.node[4].veinsmobility minSpeed 9.8163379059329e-05
scalar RSUExampleScenario3.node[4].veinsmobility maxSpeed 28.271850532101
scalar RSUExampleScenario3.node[4].veinsmobility totalDistance 3219.6539275724
scalar RSUExampleScenario3.node[4].veinsmobility totalCO2Emission 637.98220629289
scalar RSUExampleScenario3.node[9].appl generatedWSMs 178
scalar RSUExampleScenario3.node[9].appl receivedWSMs 457
scalar RSUExampleScenario3.node[9].appl generatedBSMs 0
scalar RSUExampleScenario3.node[9].appl receivedBSMs 0
scalar RSUExampleScenario3.node[9].appl generatedWSAs 0
scalar RSUExampleScenario3.node[9].appl receivedWSAs 0
scalar RSUExampleScenario3.node[9].nic.phy80211p busyTime 0.0019915505617978
scalar RSUExampleScenario3.node[9].nic.mac1609_4 ReceivedUnicastPackets 0
scalar RSUExampleScenario3.node[9].nic.mac1609_4 ReceivedBroadcasts 457
scalar RSUExampleScenario3.node[9].nic.mac1609_4 SentPackets 178
scalar RSUExampleScenario3.node[9].nic.mac1609_4 SentAcknowledgements 0
scalar RSUExampleScenario3.node[9].nic.mac1609_4 RetriesExceeded 0
scalar RSUExampleScenario3.node[9].nic.mac1609_4 SNIRLostPackets 1071
scalar RSUExampleScenario3.node[9].nic.mac1609_4 RXTXLostPackets 762
scalar RSUExampleScenario3.node[9].nic.mac1609_4 TotalLostPackets 1833
scalar RSUExampleScenario3.node[9].nic.mac1609_4 DroppedPacketsInMac 0
scalar RSUExampleScenario3.node[9].nic.mac1609_4 TooLittleTime 0
scalar RSUExampleScenario3.node[9].nic.mac1609_4 TimesIntoBackoff 178
scalar RSUExampleScenario3.node[9].nic.mac1609_4 SlotsBackoff 293
scalar RSUExampleScenario3.node[9].nic.mac1609_4 NumInternalContention 0
scalar RSUExampleScenario3.node[9].nic.mac1609_4 totalBusyTime 0.249586521746
scalar RSUExampleScenario3.node[9].nic.mac1609_4 retriesExceeded:count 0
attr source org_car2x_veins_modules_mac_sigRetriesExceeded
scalar RSUExampleScenario3.node[9].nic.mac1609_4 sentAcks:count 0
attr source org_car2x_veins_modules_mac_sigSentAck
scalar RSUExampleScenario3.node[9].nic.mac1609_4 sentPackets:count 178
attr source org_car2x_veins_modules_mac_sigSentPacket
scalar RSUExampleScenario3.node[9].nic.mac1609_4 collisions:count 0
attr source org_car2x_veins_modules_mac_sigCollision
scalar RSUExampleScenario3.node[9].nic.mac1609_4 channelBusy:timeavg 0.0014021714704832
attr source org_car2x_veins_modules_mac_sigChannelBusy
scalar RSUExampleScenario3.node[9].veinsmobility startTime 30
scalar RSUExampleScenario3.node[9].veinsmobility totalTime 177
scalar RSUExampleScenario3.node[9].veinsmobility stopTime 208
scalar RSUExampleScenario3.node[9].veinsmobility minSpeed 2.5321421087617
scalar RSUExampleScenario3.node[9].veinsmobility maxSpeed 27.823382725644
scalar RSUExampleScenario3.node[9].veinsmobility totalDistance 3222.4046180657
scalar RSUExampleScenario3.node[9].veinsmobility totalCO2Emission 600.29294038759
scalar RSUExampleScenario3.node[12].appl generatedWSMs 175
scalar RSUExampleScenario3.node[12].appl receivedWSMs 630
scalar RSUExampleScenario3.node[12].appl generatedBSMs 0
scalar RSUExampleScenario3.node[12].appl receivedBSMs 0
scalar RSUExampleScenario3.node[12].appl generatedWSAs 0
scalar RSUExampleScenario3.node[12].appl receivedWSAs 0
scalar RSUExampleScenario3.node[12].nic.phy80211p busyTime 0.0020588342857143
scalar RSUExampleScenario3.node[12].nic.mac1609_4 ReceivedUnicastPackets 0
scalar RSUExampleScenario3.node[12].nic.mac1609_4 ReceivedBroadcasts 630
scalar RSUExampleScenario3.node[12].nic.mac1609_4 SentPackets 175
scalar RSUExampleScenario3.node[12].nic.mac1609_4 SentAcknowledgements 0
scalar RSUExampleScenario3.node[12].nic.mac1609_4 RetriesExceeded 0
scalar RSUExampleScenario3.node[12].nic.mac1609_4 SNIRLostPackets 923
scalar RSUExampleScenario3.node[12].nic.mac1609_4 RXTXLostPackets 953
scalar RSUExampleScenario3.node[12].nic.mac1609_4 TotalLostPackets 1876
scalar RSUExampleScenario3.node[12].nic.mac1609_4 DroppedPacketsInMac 0
scalar RSUExampleScenario3.node[12].nic.mac1609_4 TooLittleTime 0
scalar RSUExampleScenario3.node[12].nic.mac1609_4 TimesIntoBackoff 175
scalar RSUExampleScenario3.node[12].nic.mac1609_4 SlotsBackoff 261
scalar RSUExampleScenario3.node[12].nic.mac1609_4 NumInternalContention 0
scalar RSUExampleScenario3.node[12].nic.mac1609_4 totalBusyTime 0.263505137028
scalar RSUExampleScenario3.node[12].nic.mac1609_4 retriesExceeded:count 0
attr source org_car2x_veins_modules_mac_sigRetriesExceeded
scalar RSUExampleScenario3.node[12].nic.mac1609_4 sentAcks:count 0
attr source org_car2x_veins_modules_mac_sigSentAck
scalar RSUExampleScenario3.node[12].nic.mac1609_4 sentPackets:count 175
attr source org_car2x_veins_modules_mac_sigSentPacket
scalar RSUExampleScenario3.node[12].nic.mac1609_4 collisions:count 0
attr source org_car2x_veins_modules_mac_sigCollision
scalar RSUExampleScenario3.node[12].nic.mac1609_4 channelBusy:timeavg 0.00150574364016
attr source org_car2x_veins_modules_mac_sigChannelBusy
scalar RSUExampleScenario3.node[12].veinsmobility startTime 34
scalar RSUExampleScenario3.node[12].veinsmobility totalTime 174
scalar RSUExampleScenario3.node[12].veinsmobility stopTime 209
scalar RSUExampleScenario3.node[12].veinsmobility minSpeed 2.6058179548586
scalar RSUExampleScenario3.node[12].veinsmobility maxSpeed 28.351947155032
scalar RSUExampleScenario3.node[12].veinsmobility totalDistance 3224.5064824125
scalar RSUExampleScenario3.node[12].veinsmobility totalCO2Emission 610.21030202953
scalar RSUExampleScenario3.node[14].appl generatedWSMs 168
scalar RSUExampleScenario3.node[14].appl receivedWSMs 743
scalar RSUExampleScenario3.node[14].appl generatedBSMs 0
scalar RSUExampleScenario3.node[14].appl receivedBSMs 0
scalar RSUExampleScenario3.node[14].appl generatedWSAs 0
scalar RSUExampleScenario3.node[14].appl receivedWSAs 0
scalar RSUExampleScenario3.node[14].nic.phy80211p busyTime 0.0028212857142858
scalar RSUExampleScenario3.node[14].nic.mac1609_4 ReceivedUnicastPackets 0
scalar RSUExampleScenario3.node[14].nic.mac1609_4 ReceivedBroadcasts 743
scalar RSUExampleScenario3.node[14].nic.mac1609_4 SentPackets 168
scalar RSUExampleScenario3.node[14].nic.mac1609_4 SentAcknowledgements 0
scalar RSUExampleScenario3.node[14].nic.mac1609_4 RetriesExceeded 0
scalar RSUExampleScenario3.node[14].nic.mac1609_4 SNIRLostPackets 1299
scalar RSUExampleScenario3.node[14].nic.mac1609_4 RXTXLostPackets 1190
scalar RSUExampleScenario3.node[14].nic.mac1609_4 TotalLostPackets 2489
scalar RSUExampleScenario3.node[14].nic.mac1609_4 DroppedPacketsInMac 0
scalar RSUExampleScenario3.node[14].nic.mac1609_4 TooLittleTime 0
scalar RSUExampleScenario3.node[14].nic.mac1609_4 TimesIntoBackoff 168
scalar RSUExampleScenario3.node[14].nic.mac1609_4 SlotsBackoff 247
scalar RSUExampleScenario3.node[14].nic.mac1609_4 NumInternalContention 0
scalar RSUExampleScenario3.node[14].nic.mac1609_4 totalBusyTime 0.318958200841
scalar RSUExampleScenario3.node[14].nic.mac1609_4 retriesExceeded:count 0
attr source org_car2x_veins_modules_mac_sigRetriesExceeded
scalar RSUExampleScenario3.node[14].nic.mac1609_4 sentAcks:count 0
attr source org_car2x_veins_modules_mac_sigSentAck
scalar RSUExampleScenario3.node[14].nic.mac1609_4 sentPackets:count 168
attr source org_car2x_veins_modules_mac_sigSentPacket
scalar RSUExampleScenario3.node[14].nic.mac1609_4 collisions:count 0
attr source org_car2x_veins_modules_mac_sigCollision
scalar RSUExampleScenario3.node[14].nic.mac1609_4 channelBusy:timeavg 0.0018985607192917
attr source org_car2x_veins_modules_mac_sigChannelBusy
scalar RSUExampleScenario3.node[14].veinsmobility startTime 41
scalar RSUExampleScenario3.node[14].veinsmobility totalTime 167
scalar RSUExampleScenario3.node[14].veinsmobility stopTime 209
scalar RSUExampleScenario3.node[14].veinsmobility minSpeed 3.3724050041164
scalar RSUExampleScenario3.node[14].veinsmobility maxSpeed 29.706370482441
scalar RSUExampleScenario3.node[14].veinsmobility totalDistance 3228.5648738734
scalar RSUExampleScenario3.node[14].veinsmobility totalCO2Emission 622.13413078391
scalar RSUExampleScenario3.node[11].appl generatedWSMs 182
scalar RSUExampleScenario3.node[11].appl receivedWSMs 752
scalar RSUExampleScenario3.node[11].appl generatedBSMs 0
scalar RSUExampleScenario3.node[11].appl receivedBSMs 0
scalar RSUExampleScenario3.node[11].appl generatedWSAs 0
scalar RSUExampleScenario3.node[11].appl receivedWSAs 0
scalar RSUExampleScenario3.node[11].nic.phy80211p busyTime 0.0028005714285715
scalar RSUExampleScenario3.node[11].nic.mac1609_4 ReceivedUnicastPackets 0
scalar RSUExampleScenario3.node[11].nic.mac1609_4 ReceivedBroadcasts 752
scalar RSUExampleScenario3.node[11].nic.mac1609_4 SentPackets 182
scalar RSUExampleScenario3.node[11].nic.mac1609_4 SentAcknowledgements 0
scalar RSUExampleScenario3.node[11].nic.mac1609_4 RetriesExceeded 0
scalar RSUExampleScenario3.node[11].nic.mac1609_4 SNIRLostPackets 1445
scalar RSUExampleScenario3.node[11].nic.mac1609_4 RXTXLostPackets 1211
scalar RSUExampleScenario3.node[11].nic.mac1609_4 TotalLostPackets 2656
scalar RSUExampleScenario3.node[11].nic.mac1609_4 DroppedPacketsInMac 0
scalar RSUExampleScenario3.node[11].nic.mac1609_4 TooLittleTime 0
scalar RSUExampleScenario3.node[11].nic.mac1609_4 TimesIntoBackoff 182
scalar RSUExampleScenario3.node[11].nic.mac1609_4 SlotsBackoff 276
scalar RSUExampleScenario3.node[11].nic.mac1609_4 NumInternalContention 0
scalar RSUExampleScenario3.node[11].nic.mac1609_4 totalBusyTime 0.342007799443
scalar RSUExampleScenario3.node[11].nic.mac1609_4 retriesExceeded:count 0
attr source org_car2x_veins_modules_mac_sigRetriesExceeded
scalar RSUExampleScenario3.node[11].nic.mac1609_4 sentAcks:count 0
attr source org_car2x_veins_modules_mac_sigSentAck
scalar RSUExampleScenario3.node[11].nic.mac1609_4 sentPackets:count 182
attr source org_car2x_veins_modules_mac_sigSentPacket
scalar RSUExampleScenario3.node[11].nic.mac1609_4 collisions:count 0
attr source org_car2x_veins_modules_mac_sigCollision
scalar RSUExampleScenario3.node[11].nic.mac1609_4 channelBusy:timeavg 0.0018791637332033
attr source org_car2x_veins_modules_mac_sigChannelBusy
scalar RSUExampleScenario3.node[11].veinsmobility startTime 31
scalar RSUExampleScenario3.node[11].veinsmobility totalTime 181
scalar RSUExampleScenario3.node[11].veinsmobility stopTime 213
scalar RSUExampleScenario3.node[11].veinsmobility minSpeed 9.9716862332635e-05
scalar RSUExampleScenario3.node[11].veinsmobility maxSpeed 27.909868417931
scalar RSUExampleScenario3.node[11].veinsmobility totalDistance 3240.5242804927
scalar RSUExampleScenario3.node[11].veinsmobility totalCO2Emission 622.38511183133
scalar RSUExampleScenario3.node[6].appl generatedWSMs 965
scalar RSUExampleScenario3.node[6].appl receivedWSMs 290
scalar RSUExampleScenario3.node[6].appl generatedBSMs 0
scalar RSUExampleScenario3.node[6].appl receivedBSMs 0
scalar RSUExampleScenario3.node[6].appl generatedWSAs 0
scalar RSUExampleScenario3.node[6].appl receivedWSAs 0
scalar RSUExampleScenario3.node[6].nic.phy80211p busyTime 0.0012189015544042
scalar RSUExampleScenario3.node[6].nic.mac1609_4 ReceivedUnicastPackets 0
scalar RSUExampleScenario3.node[6].nic.mac1609_4 ReceivedBroadcasts 290
scalar RSUExampleScenario3.node[6].nic.mac1609_4 SentPackets 965
scalar RSUExampleScenario3.node[6].nic.mac1609_4 SentAcknowledgements 0
scalar RSUExampleScenario3.node[6].nic.mac1609_4 RetriesExceeded 0
scalar RSUExampleScenario3.node[6].nic.mac1609_4 SNIRLostPackets 722
scalar RSUExampleScenario3.node[6].nic.mac1609_4 RXTXLostPackets 1286
scalar RSUExampleScenario3.node[6].nic.mac1609_4 TotalLostPackets 2008
scalar RSUExampleScenario3.node[6].nic.mac1609_4 DroppedPacketsInMac 0
scalar RSUExampleScenario3.node[6].nic.mac1609_4 TooLittleTime 0
scalar RSUExampleScenario3.node[6].nic.mac1609_4 TimesIntoBackoff 965
scalar RSUExampleScenario3.node[6].nic.mac1609_4 SlotsBackoff 1453
scalar RSUExampleScenario3.node[6].nic.mac1609_4 NumInternalContention 0
scalar RSUExampleScenario3.node[6].nic.mac1609_4 totalBusyTime 0.353619819988
scalar RSUExampleScenario3.node[6].nic.mac1609_4 retriesExceeded:count 0
attr source org_car2x_veins_modules_mac_sigRetriesExceeded
scalar RSUExampleScenario3.node[6].nic.mac1609_4 sentAcks:count 0
attr source org_car2x_veins_modules_mac_sigSentAck
scalar RSUExampleScenario3.node[6].nic.mac1609_4 sentPackets:count 965
attr source org_car2x_veins_modules_mac_sigSentPacket
scalar RSUExampleScenario3.node[6].nic.mac1609_4 collisions:count 0
attr source org_car2x_veins_modules_mac_sigCollision
scalar RSUExampleScenario3.node[6].nic.mac1609_4 channelBusy:timeavg 0.00183222704657
attr source org_car2x_veins_modules_mac_sigChannelBusy
scalar RSUExampleScenario3.node[6].veinsmobility startTime 21
scalar RSUExampleScenario3.node[6].veinsmobility totalTime 192
scalar RSUExampleScenario3.node[6].veinsmobility stopTime 214
scalar RSUExampleScenario3.node[6].veinsmobility minSpeed 3.0548019321063
scalar RSUExampleScenario3.node[6].veinsmobility maxSpeed 25.346616600353
scalar RSUExampleScenario3.node[6].veinsmobility totalDistance 3233.5859367059
scalar RSUExampleScenario3.node[6].veinsmobility totalCO2Emission 577.43552309586
scalar RSUExampleScenario3.node[3].appl generatedWSMs 200
scalar RSUExampleScenario3.node[3].appl receivedWSMs 513
scalar RSUExampleScenario3.node[3].appl generatedBSMs 0
scalar RSUExampleScenario3.node[3].appl receivedBSMs 0
scalar RSUExampleScenario3.node[3].appl generatedWSAs 0
scalar RSUExampleScenario3.node[3].appl receivedWSAs 0
scalar RSUExampleScenario3.node[3].nic.phy80211p busyTime 0.00165996
scalar RSUExampleScenario3.node[3].nic.mac1609_4 ReceivedUnicastPackets 0
scalar RSUExampleScenario3.node[3].nic.mac1609_4 ReceivedBroadcasts 513
scalar RSUExampleScenario3.node[3].nic.mac1609_4 SentPackets 200
scalar RSUExampleScenario3.node[3].nic.mac1609_4 SentAcknowledgements 0
scalar RSUExampleScenario3.node[3].nic.mac1609_4 RetriesExceeded 0
scalar RSUExampleScenario3.node[3].nic.mac1609_4 SNIRLostPackets 918
scalar RSUExampleScenario3.node[3].nic.mac1609_4 RXTXLostPackets 836
scalar RSUExampleScenario3.node[3].nic.mac1609_4 TotalLostPackets 1754
scalar RSUExampleScenario3.node[3].nic.mac1609_4 DroppedPacketsInMac 0
scalar RSUExampleScenario3.node[3].nic.mac1609_4 TooLittleTime 0
scalar RSUExampleScenario3.node[3].nic.mac1609_4 TimesIntoBackoff 200
scalar RSUExampleScenario3.node[3].nic.mac1609_4 SlotsBackoff 321
scalar RSUExampleScenario3.node[3].nic.mac1609_4 NumInternalContention 0
scalar RSUExampleScenario3.node[3].nic.mac1609_4 totalBusyTime 0.24520232343
scalar RSUExampleScenario3.node[3].nic.mac1609_4 retriesExceeded:count 0
attr source org_car2x_veins_modules_mac_sigRetriesExceeded
scalar RSUExampleScenario3.node[3].nic.mac1609_4 sentAcks:count 0
attr source org_car2x_veins_modules_mac_sigSentAck
scalar RSUExampleScenario3.node[3].nic.mac1609_4 sentPackets:count 200
attr source org_car2x_veins_modules_mac_sigSentPacket
scalar RSUExampleScenario3.node[3].nic.mac1609_4 collisions:count 0
attr source org_car2x_veins_modules_mac_sigCollision
scalar RSUExampleScenario3.node[3].nic.mac1609_4 channelBusy:timeavg 0.00122601161715
attr source org_car2x_veins_modules_mac_sigChannelBusy
scalar RSUExampleScenario3.node[3].veinsmobility startTime 15
scalar RSUExampleScenario3.node[3].veinsmobility totalTime 199
scalar RSUExampleScenario3.node[3].veinsmobility stopTime 215
scalar RSUExampleScenario3.node[3].veinsmobility minSpeed 0.15182410018086
scalar RSUExampleScenario3.node[3].veinsmobility maxSpeed 25.355648605214
scalar RSUExampleScenario3.node[3].veinsmobility totalDistance 3221.673918028
scalar RSUExampleScenario3.node[3].veinsmobility totalCO2Emission 599.29399909589
scalar RSUExampleScenario3.node[8].appl generatedWSMs 975
scalar RSUExampleScenario3.node[8].appl receivedWSMs 185
scalar RSUExampleScenario3.node[8].appl generatedBSMs 0
scalar RSUExampleScenario3.node[8].appl receivedBSMs 0
scalar RSUExampleScenario3.node[8].appl generatedWSAs 0
scalar RSUExampleScenario3.node[8].appl receivedWSAs 0
scalar RSUExampleScenario3.node[8].nic.phy80211p busyTime 0.00088754871794873
scalar RSUExampleScenario3.node[8].nic.mac1609_4 ReceivedUnicastPackets 0
scalar RSUExampleScenario3.node[8].nic.mac1609_4 ReceivedBroadcasts 185
scalar RSUExampleScenario3.node[8].nic.mac1609_4 SentPackets 975
scalar RSUExampleScenario3.node[8].nic.mac1609_4 SentAcknowledgements 0
scalar RSUExampleScenario3.node[8].nic.mac1609_4 RetriesExceeded 0
scalar RSUExampleScenario3.node[8].nic.mac1609_4 SNIRLostPackets 561
scalar RSUExampleScenario3.node[8].nic.mac1609_4 RXTXLostPackets 1081
scalar RSUExampleScenario3.node[8].nic.mac1609_4 TotalLostPackets 1642
scalar RSUExampleScenario3.node[8].nic.mac1609_4 DroppedPacketsInMac 0
scalar RSUExampleScenario3.node[8].nic.mac1609_4 TooLittleTime 0
scalar RSUExampleScenario3.node[8].nic.mac1609_4 TimesIntoBackoff 975
scalar RSUExampleScenario3.node[8].nic.mac1609_4 SlotsBackoff 1476
scalar RSUExampleScenario3.node[8].nic.mac1609_4 NumInternalContention 0
scalar RSUExampleScenario3.node[8].nic.mac1609_4 totalBusyTime 0.313025675262
scalar RSUExampleScenario3.node[8].nic.mac1609_4 retriesExceeded:count 0
attr source org_car2x_veins_modules_mac_sigRetriesExceeded
scalar RSUExampleScenario3.node[8].nic.mac1609_4 sentAcks:count 0
attr source org_car2x_veins_modules_mac_sigSentAck
scalar RSUExampleScenario3.node[8].nic.mac1609_4 sentPackets:count 975
attr source org_car2x_veins_modules_mac_sigSentPacket
scalar RSUExampleScenario3.node[8].nic.mac1609_4 collisions:count 0
attr source org_car2x_veins_modules_mac_sigCollision
scalar RSUExampleScenario3.node[8].nic.mac1609_4 channelBusy:timeavg 0.0016052598731385
attr source org_car2x_veins_modules_mac_sigChannelBusy
scalar RSUExampleScenario3.node[8].veinsmobility startTime 27
scalar RSUExampleScenario3.node[8].veinsmobility totalTime 194
scalar RSUExampleScenario3.node[8].veinsmobility stopTime 222
scalar RSUExampleScenario3.node[8].veinsmobility minSpeed 2.7670593678813
scalar RSUExampleScenario3.node[8].veinsmobility maxSpeed 24.992993423905
scalar RSUExampleScenario3.node[8].veinsmobility totalDistance 3231.7613934883
scalar RSUExampleScenario3.node[8].veinsmobility totalCO2Emission 584.04455982017
scalar RSUExampleScenario3.node[21].appl generatedWSMs 174
scalar RSUExampleScenario3.node[21].appl receivedWSMs 542
scalar RSUExampleScenario3.node[21].appl generatedBSMs 0
scalar RSUExampleScenario3.node[21].appl receivedBSMs 0
scalar RSUExampleScenario3.node[21].appl generatedWSAs 0
scalar RSUExampleScenario3.node[21].appl receivedWSAs 0
scalar RSUExampleScenario3.node[21].nic.phy80211p busyTime 0.0021320000000001
scalar RSUExampleScenario3.node[21].nic.mac1609_4 ReceivedUnicastPackets 0
scalar RSUExampleScenario3.node[21].nic.mac1609_4 ReceivedBroadcasts 542
scalar RSUExampleScenario3.node[21].nic.mac1609_4 SentPackets 174
scalar RSUExampleScenario3.node[21].nic.mac1609_4 SentAcknowledgements 0
scalar RSUExampleScenario3.node[21].nic.mac1609_4 RetriesExceeded 0
scalar RSUExampleScenario3.node[21].nic.mac1609_4 SNIRLostPackets 1057
scalar RSUExampleScenario3.node[21].nic.mac1609_4 RXTXLostPackets 937
scalar RSUExampleScenario3.node[21].nic.mac1609_4 TotalLostPackets 1994
scalar RSUExampleScenario3.node[21].nic.mac1609_4 DroppedPacketsInMac 0
scalar RSUExampleScenario3.node[21].nic.mac1609_4 TooLittleTime 0
scalar RSUExampleScenario3.node[21].nic.mac1609_4 TimesIntoBackoff 174
scalar RSUExampleScenario3.node[21].nic.mac1609_4 SlotsBackoff 238
scalar RSUExampleScenario3.node[21].nic.mac1609_4 NumInternalContention 0
scalar RSUExampleScenario3.node[21].nic.mac1609_4 totalBusyTime 0.26976436544
scalar RSUExampleScenario3.node[21].nic.mac1609_4 retriesExceeded:count 0
attr source org_car2x_veins_modules_mac_sigRetriesExceeded
scalar RSUExampleScenario3.node[21].nic.mac1609_4 sentAcks:count 0
attr source org_car2x_veins_modules_mac_sigSentAck
scalar RSUExampleScenario3.node[21].nic.mac1609_4 sentPackets:count 174
attr source org_car2x_veins_modules_mac_sigSentPacket
scalar RSUExampleScenario3.node[21].nic.mac1609_4 collisions:count 0
attr source org_car2x_veins_modules_mac_sigCollision
scalar RSUExampleScenario3.node[21].nic.mac1609_4 channelBusy:timeavg 0.0015503699163219
attr source org_car2x_veins_modules_mac_sigChannelBusy
scalar RSUExampleScenario3.node[21].veinsmobility startTime 54
scalar RSUExampleScenario3.node[21].veinsmobility totalTime 173
scalar RSUExampleScenario3.node[21].veinsmobility stopTime 228
scalar RSUExampleScenario3.node[21].veinsmobility minSpeed 3.2334600201574
scalar RSUExampleScenario3.node[21].veinsmobility maxSpeed 29.122394856227
scalar RSUExampleScenario3.node[21].veinsmobility totalDistance 3222.1577596415
scalar RSUExampleScenario3.node[21].veinsmobility totalCO2Emission 620.03374311533
scalar RSUExampleScenario3.node[18].appl generatedWSMs 180
scalar RSUExampleScenario3.node[18].appl receivedWSMs 566
scalar RSUExampleScenario3.node[18].appl generatedBSMs 0
scalar RSUExampleScenario3.node[18].appl receivedBSMs 0
scalar RSUExampleScenario3.node[18].appl generatedWSAs 0
scalar RSUExampleScenario3.node[18].appl receivedWSAs 0
scalar RSUExampleScenario3.node[18].nic.phy80211p busyTime 0.0028690666666668
scalar RSUExampleScenario3.node[18].nic.mac1609_4 ReceivedUnicastPackets 0
scalar RSUExampleScenario3.node[18].nic.mac1609_4 ReceivedBroadcasts 566
scalar RSUExampleScenario3.node[18].nic.mac1609_4 SentPackets 180
scalar RSUExampleScenario3.node[18].nic.mac1609_4 SentAcknowledgements 0
scalar RSUExampleScenario3.node[18].nic.mac1609_4 RetriesExceeded 0
scalar RSUExampleScenario3.node[18].nic.mac1609_4 SNIRLostPackets 1660
scalar RSUExampleScenario3.node[18].nic.mac1609_4 RXTXLostPackets 1057
scalar RSUExampleScenario3.node[18].nic.mac1609_4 TotalLostPackets 2717
scalar RSUExampleScenario3.node[18].nic.mac1609_4 DroppedPacketsInMac 0
scalar RSUExampleScenario3.node[18].nic.mac1609_4 TooLittleTime 0
scalar RSUExampleScenario3.node[18].nic.mac1609_4 TimesIntoBackoff 180
scalar RSUExampleScenario3.node[18].nic.mac1609_4 SlotsBackoff 245
scalar RSUExampleScenario3.node[18].nic.mac1609_4 NumInternalContention 0
scalar RSUExampleScenario3.node[18].nic.mac1609_4 totalBusyTime 0.29580251221
scalar RSUExampleScenario3.node[18].nic.mac1609_4 retriesExceeded:count 0
attr source org_car2x_veins_modules_mac_sigRetriesExceeded
scalar RSUExampleScenario3.node[18].nic.mac1609_4 sentAcks:count 0
attr source org_car2x_veins_modules_mac_sigSentAck
scalar RSUExampleScenario3.node[18].nic.mac1609_4 sentPackets:count 180
attr source org_car2x_veins_modules_mac_sigSentPacket
scalar RSUExampleScenario3.node[18].nic.mac1609_4 collisions:count 0
attr source org_car2x_veins_modules_mac_sigCollision
scalar RSUExampleScenario3.node[18].nic.mac1609_4 channelBusy:timeavg 0.0016433472900556
attr source org_car2x_veins_modules_mac_sigChannelBusy
scalar RSUExampleScenario3.node[18].veinsmobility startTime 48
scalar RSUExampleScenario3.node[18].veinsmobility totalTime 179
scalar RSUExampleScenario3.node[18].veinsmobility stopTime 228
scalar RSUExampleScenario3.node[18].veinsmobility minSpeed 3.5348542018128
scalar RSUExampleScenario3.node[18].veinsmobility maxSpeed 26.963920995552
scalar RSUExampleScenario3.node[18].veinsmobility totalDistance 3205.4618038609
scalar RSUExampleScenario3.node[18].veinsmobility totalCO2Emission 598.38696058889
scalar RSUExampleScenario3.node[15].appl generatedWSMs 970
scalar RSUExampleScenario3.node[15].appl receivedWSMs 251
scalar RSUExampleScenario3.node[15].appl generatedBSMs 0
scalar RSUExampleScenario3.node[15].appl receivedBSMs 0
scalar RSUExampleScenario3.node[15].appl generatedWSAs 0
scalar RSUExampleScenario3.node[15].appl receivedWSAs 0
scalar RSUExampleScenario3.node[15].nic.phy80211p busyTime 0.0019576494845361
scalar RSUExampleScenario3.node[15].nic.mac1609_4 ReceivedUnicastPackets 0
scalar RSUExampleScenario3.node[15].nic.mac1609_4 ReceivedBroadcasts 251
scalar RSUExampleScenario3.node[15].nic.mac1609_4 SentPackets 970
scalar RSUExampleScenario3.node[15].nic.mac1609_4 SentAcknowledgements 0
scalar RSUExampleScenario3.node[15].nic.mac1609_4 RetriesExceeded 0
scalar RSUExampleScenario3.node[15].nic.mac1609_4 SNIRLostPackets 1381
scalar RSUExampleScenario3.node[15].nic.mac1609_4 RXTXLostPackets 1608
scalar RSUExampleScenario3.node[15].nic.mac1609_4 TotalLostPackets 2989
scalar RSUExampleScenario3.node[15].nic.mac1609_4 DroppedPacketsInMac 0
scalar RSUExampleScenario3.node[15].nic.mac1609_4 TooLittleTime 0
scalar RSUExampleScenario3.node[15].nic.mac1609_4 TimesIntoBackoff 970
scalar RSUExampleScenario3.node[15].nic.mac1609_4 SlotsBackoff 1462
scalar RSUExampleScenario3.node[15].nic.mac1609_4 NumInternalContention 0
scalar RSUExampleScenario3.node[15].nic.mac1609_4 totalBusyTime 0.385633658403
scalar RSUExampleScenario3.node[15].nic.mac1609_4 retriesExceeded:count 0
attr source org_car2x_veins_modules_mac_sigRetriesExceeded
scalar RSUExampleScenario3.node[15].nic.mac1609_4 sentAcks:count 0
attr source org_car2x_veins_modules_mac_sigSentAck
scalar RSUExampleScenario3.node[15].nic.mac1609_4 sentPackets:count 970
attr source org_car2x_veins_modules_mac_sigSentPacket
scalar RSUExampleScenario3.node[15].nic.mac1609_4 collisions:count 0
attr source org_car2x_veins_modules_mac_sigCollision
scalar RSUExampleScenario3.node[15].nic.mac1609_4 channelBusy:timeavg 0.0019878023629021
attr source org_car2x_veins_modules_mac_sigChannelBusy
scalar RSUExampleScenario3.node[15].veinsmobility startTime 42
scalar RSUExampleScenario3.node[15].veinsmobility totalTime 193
scalar RSUExampleScenario3.node[15].veinsmobility stopTime 236
scalar RSUExampleScenario3.node[15].veinsmobility minSpeed 4.0151638505304
scalar RSUExampleScenario3.node[15].veinsmobility maxSpeed 25.171958504572
scalar RSUExampleScenario3.node[15].veinsmobility totalDistance 3238.0193753577
scalar RSUExampleScenario3.node[15].veinsmobility totalCO2Emission 574.96655552376
scalar RSUExampleScenario3.node[26].appl generatedWSMs 164
scalar RSUExampleScenario3.node[26].appl receivedWSMs 573
scalar RSUExampleScenario3.node[26].appl generatedBSMs 0
scalar RSUExampleScenario3.node[26].appl receivedBSMs 0
scalar RSUExampleScenario3.node[26].appl generatedWSAs 0
scalar RSUExampleScenario3.node[26].appl receivedWSAs 0
scalar RSUExampleScenario3.node[26].nic.phy80211p busyTime 0.0024685365853659
scalar RSUExampleScenario3.node[26].nic.mac1609_4 ReceivedUnicastPackets 0
scalar RSUExampleScenario3.node[26].nic.mac1609_4 ReceivedBroadcasts 573
scalar RSUExampleScenario3.node[26].nic.mac1609_4 SentPackets 164
scalar RSUExampleScenario3.node[26].nic.mac1609_4 SentAcknowledgements 0
scalar RSUExampleScenario3.node[26].nic.mac1609_4 RetriesExceeded 0
scalar RSUExampleScenario3.node[26].nic.mac1609_4 SNIRLostPackets 1172
scalar RSUExampleScenario3.node[26].nic.mac1609_4 RXTXLostPackets 1301
scalar RSUExampleScenario3.node[26].nic.mac1609_4 TotalLostPackets 2473
scalar RSUExampleScenario3.node[26].nic.mac1609_4 DroppedPacketsInMac 0
scalar RSUExampleScenario3.node[26].nic.mac1609_4 TooLittleTime 0
scalar RSUExampleScenario3.node[26].nic.mac1609_4 TimesIntoBackoff 164
scalar RSUExampleScenario3.node[26].nic.mac1609_4 SlotsBackoff 270
scalar RSUExampleScenario3.node[26].nic.mac1609_4 NumInternalContention 0
scalar RSUExampleScenario3.node[26].nic.mac1609_4 totalBusyTime 0.271161753945
scalar RSUExampleScenario3.node[26].nic.mac1609_4 retriesExceeded:count 0
attr source org_car2x_veins_modules_mac_sigRetriesExceeded
scalar RSUExampleScenario3.node[26].nic.mac1609_4 sentAcks:count 0
attr source org_car2x_veins_modules_mac_sigSentAck
scalar RSUExampleScenario3.node[26].nic.mac1609_4 sentPackets:count 164
attr source org_car2x_veins_modules_mac_sigSentPacket
scalar RSUExampleScenario3.node[26].nic.mac1609_4 collisions:count 0
attr source org_car2x_veins_modules_mac_sigCollision
scalar RSUExampleScenario3.node[26].nic.mac1609_4 channelBusy:timeavg 0.001653425328933
attr source org_car2x_veins_modules_mac_sigChannelBusy
scalar RSUExampleScenario3.node[26].veinsmobility startTime 72
scalar RSUExampleScenario3.node[26].veinsmobility totalTime 163
scalar RSUExampleScenario3.node[26].veinsmobility stopTime 236
scalar RSUExampleScenario3.node[26].veinsmobility minSpeed 2.3135253517871
scalar RSUExampleScenario3.node[26].veinsmobility maxSpeed 30.892545442707
scalar RSUExampleScenario3.node[26].veinsmobility totalDistance 3224.7679014415
scalar RSUExampleScenario3.node[26].veinsmobility totalCO2Emission 653.23626550507
scalar RSUExampleScenario3.node[23].appl generatedWSMs 178
scalar RSUExampleScenario3.node[23].appl receivedWSMs 585
scalar RSUExampleScenario3.node[23].appl generatedBSMs 0
scalar RSUExampleScenario3.node[23].appl receivedBSMs 0
scalar RSUExampleScenario3.node[23].appl generatedWSAs 0
scalar RSUExampleScenario3.node[23].appl receivedWSAs 0
scalar RSUExampleScenario3.node[23].nic.phy80211p busyTime 0.0024620674157304
scalar RSUExampleScenario3.node[23].nic.mac1609_4 ReceivedUnicastPackets 0
scalar RSUExampleScenario3.node[23].nic.mac1609_4 ReceivedBroadcasts 585
scalar RSUExampleScenario3.node[23].nic.mac1609_4 SentPackets 178
scalar RSUExampleScenario3.node[23].nic.mac1609_4 SentAcknowledgements 0
scalar RSUExampleScenario3.node[23].nic.mac1609_4 RetriesExceeded 0
scalar RSUExampleScenario3.node[23].nic.mac1609_4 SNIRLostPackets 1304
scalar RSUExampleScenario3.node[23].nic.mac1609_4 RXTXLostPackets 1261
scalar RSUExampleScenario3.node[23].nic.mac1609_4 TotalLostPackets 2565
scalar RSUExampleScenario3.node[23].nic.mac1609_4 DroppedPacketsInMac 0
scalar RSUExampleScenario3.node[23].nic.mac1609_4 TooLittleTime 0
scalar RSUExampleScenario3.node[23].nic.mac1609_4 TimesIntoBackoff 178
scalar RSUExampleScenario3.node[23].nic.mac1609_4 SlotsBackoff 285
scalar RSUExampleScenario3.node[23].nic.mac1609_4 NumInternalContention 0
scalar RSUExampleScenario3.node[23].nic.mac1609_4 totalBusyTime 0.286997271068
scalar RSUExampleScenario3.node[23].nic.mac1609_4 retriesExceeded:count 0
attr source org_car2x_veins_modules_mac_sigRetriesExceeded
scalar RSUExampleScenario3.node[23].nic.mac1609_4 sentAcks:count 0
attr source org_car2x_veins_modules_mac_sigSentAck
scalar RSUExampleScenario3.node[23].nic.mac1609_4 sentPackets:count 178
attr source org_car2x_veins_modules_mac_sigSentPacket
scalar RSUExampleScenario3.node[23].nic.mac1609_4 collisions:count 0
attr source org_car2x_veins_modules_mac_sigCollision
scalar RSUExampleScenario3.node[23].nic.mac1609_4 channelBusy:timeavg 0.0016123442194832
attr source org_car2x_veins_modules_mac_sigChannelBusy
scalar RSUExampleScenario3.node[23].veinsmobility startTime 62
scalar RSUExampleScenario3.node[23].veinsmobility totalTime 177
scalar RSUExampleScenario3.node[23].veinsmobility stopTime 240
scalar RSUExampleScenario3.node[23].veinsmobility minSpeed 3.0521943315606
scalar RSUExampleScenario3.node[23].veinsmobility maxSpeed 27.35954086642
scalar RSUExampleScenario3.node[23].veinsmobility totalDistance 3219.1511746453
scalar RSUExampleScenario3.node[23].veinsmobility totalCO2Emission 603.93474709907
scalar RSUExampleScenario3.node[24].appl generatedWSMs 176
scalar RSUExampleScenario3.node[24].appl receivedWSMs 573
scalar RSUExampleScenario3.node[24].appl generatedBSMs 0
scalar RSUExampleScenario3.node[24].appl receivedBSMs 0
scalar RSUExampleScenario3.node[24].appl generatedWSAs 0
scalar RSUExampleScenario3.node[24].appl receivedWSAs 0
scalar RSUExampleScenario3.node[24].nic.phy80211p busyTime 0.0024676363636364
scalar RSUExampleScenario3.node[24].nic.mac1609_4 ReceivedUnicastPackets 0
scalar RSUExampleScenario3.node[24].nic.mac1609_4 ReceivedBroadcasts 573
scalar RSUExampleScenario3.node[24].nic.mac1609_4 SentPackets 176
scalar RSUExampleScenario3.node[24].nic.mac1609_4 SentAcknowledgements 0
scalar RSUExampleScenario3.node[24].nic.mac1609_4 RetriesExceeded 0
scalar RSUExampleScenario3.node[24].nic.mac1609_4 SNIRLostPackets 1299
scalar RSUExampleScenario3.node[24].nic.mac1609_4 RXTXLostPackets 1329
scalar RSUExampleScenario3.node[24].nic.mac1609_4 TotalLostPackets 2628
scalar RSUExampleScenario3.node[24].nic.mac1609_4 DroppedPacketsInMac 0
scalar RSUExampleScenario3.node[24].nic.mac1609_4 TooLittleTime 0
scalar RSUExampleScenario3.node[24].nic.mac1609_4 TimesIntoBackoff 176
scalar RSUExampleScenario3.node[24].nic.mac1609_4 SlotsBackoff 285
scalar RSUExampleScenario3.node[24].nic.mac1609_4 NumInternalContention 0
scalar RSUExampleScenario3.node[24].nic.mac1609_4 totalBusyTime 0.268620303175
scalar RSUExampleScenario3.node[24].nic.mac1609_4 retriesExceeded:count 0
attr source org_car2x_veins_modules_mac_sigRetriesExceeded
scalar RSUExampleScenario3.node[24].nic.mac1609_4 sentAcks:count 0
attr source org_car2x_veins_modules_mac_sigSentAck
scalar RSUExampleScenario3.node[24].nic.mac1609_4 sentPackets:count 176
attr source org_car2x_veins_modules_mac_sigSentPacket
scalar RSUExampleScenario3.node[24].nic.mac1609_4 collisions:count 0
attr source org_car2x_veins_modules_mac_sigCollision
scalar RSUExampleScenario3.node[24].nic.mac1609_4 channelBusy:timeavg 0.0015262517225853
attr source org_car2x_veins_modules_mac_sigChannelBusy
scalar RSUExampleScenario3.node[24].veinsmobility startTime 65
scalar RSUExampleScenario3.node[24].veinsmobility totalTime 175
scalar RSUExampleScenario3.node[24].veinsmobility stopTime 241
scalar RSUExampleScenario3.node[24].veinsmobility minSpeed 3.9204626791574
scalar RSUExampleScenario3.node[24].veinsmobility maxSpeed 27.758049784151
scalar RSUExampleScenario3.node[24].veinsmobility totalDistance 3217.4968995737
scalar RSUExampleScenario3.node[24].veinsmobility totalCO2Emission 617.57133819404
scalar RSUExampleScenario3.node[2].appl generatedWSMs 234
scalar RSUExampleScenario3.node[2].appl receivedWSMs 683
scalar RSUExampleScenario3.node[2].appl generatedBSMs 0
scalar RSUExampleScenario3.node[2].appl receivedBSMs 0
scalar RSUExampleScenario3.node[2].appl generatedWSAs 0
scalar RSUExampleScenario3.node[2].appl receivedWSAs 0
scalar RSUExampleScenario3.node[2].nic.phy80211p busyTime 0.0016894358974359
scalar RSUExampleScenario3.node[2].nic.mac1609_4 ReceivedUnicastPackets 0
scalar RSUExampleScenario3.node[2].nic.mac1609_4 ReceivedBroadcasts 683
scalar RSUExampleScenario3.node[2].nic.mac1609_4 SentPackets 234
scalar RSUExampleScenario3.node[2].nic.mac1609_4 SentAcknowledgements 0
scalar RSUExampleScenario3.node[2].nic.mac1609_4 RetriesExceeded 0
scalar RSUExampleScenario3.node[2].nic.mac1609_4 SNIRLostPackets 1021
scalar RSUExampleScenario3.node[2].nic.mac1609_4 RXTXLostPackets 1057
scalar RSUExampleScenario3.node[2].nic.mac1609_4 TotalLostPackets 2078
scalar RSUExampleScenario3.node[2].nic.mac1609_4 DroppedPacketsInMac 0
scalar RSUExampleScenario3.node[2].nic.mac1609_4 TooLittleTime 0
scalar RSUExampleScenario3.node[2].nic.mac1609_4 TimesIntoBackoff 234
scalar RSUExampleScenario3.node[2].nic.mac1609_4 SlotsBackoff 346
scalar RSUExampleScenario3.node[2].nic.mac1609_4 NumInternalContention 0
scalar RSUExampleScenario3.node[2].nic.mac1609_4 totalBusyTime 0.291174442223
scalar RSUExampleScenario3.node[2].nic.mac1609_4 retriesExceeded:count 0
attr source org_car2x_veins_modules_mac_sigRetriesExceeded
scalar RSUExampleScenario3.node[2].nic.mac1609_4 sentAcks:count 0
attr source org_car2x_veins_modules_mac_sigSentAck
scalar RSUExampleScenario3.node[2].nic.mac1609_4 sentPackets:count 234
attr source org_car2x_veins_modules_mac_sigSentPacket
scalar RSUExampleScenario3.node[2].nic.mac1609_4 collisions:count 0
attr source org_car2x_veins_modules_mac_sigCollision
scalar RSUExampleScenario3.node[2].nic.mac1609_4 channelBusy:timeavg 0.0012443352231752
attr source org_car2x_veins_modules_mac_sigChannelBusy
scalar RSUExampleScenario3.node[2].veinsmobility startTime 15
scalar RSUExampleScenario3.node[2].veinsmobility totalTime 233
scalar RSUExampleScenario3.node[2].veinsmobility stopTime 249
scalar RSUExampleScenario3.node[2].veinsmobility minSpeed 2.3557329764959
scalar RSUExampleScenario3.node[2].veinsmobility maxSpeed 20.501456029175
scalar RSUExampleScenario3.node[2].veinsmobility totalDistance 3235.7886584916
scalar RSUExampleScenario3.node[2].veinsmobility totalCO2Emission 555.65827135346
scalar RSUExampleScenario3.node[17].appl generatedWSMs 205
scalar RSUExampleScenario3.node[17].appl receivedWSMs 740
scalar RSUExampleScenario3.node[17].appl generatedBSMs 0
scalar RSUExampleScenario3.node[17].appl receivedBSMs 0
scalar RSUExampleScenario3.node[17].appl generatedWSAs 0
scalar RSUExampleScenario3.node[17].appl receivedWSAs 0
scalar RSUExampleScenario3.node[17].nic.phy80211p busyTime 0.0031982048780489
scalar RSUExampleScenario3.node[17].nic.mac1609_4 ReceivedUnicastPackets 0
scalar RSUExampleScenario3.node[17].nic.mac1609_4 ReceivedBroadcasts 740
scalar RSUExampleScenario3.node[17].nic.mac1609_4 SentPackets 205
scalar RSUExampleScenario3.node[17].nic.mac1609_4 SentAcknowledgements 0
scalar RSUExampleScenario3.node[17].nic.mac1609_4 RetriesExceeded 0
scalar RSUExampleScenario3.node[17].nic.mac1609_4 SNIRLostPackets 2086
scalar RSUExampleScenario3.node[17].nic.mac1609_4 RXTXLostPackets 1220
scalar RSUExampleScenario3.node[17].nic.mac1609_4 TotalLostPackets 3306
scalar RSUExampleScenario3.node[17].nic.mac1609_4 DroppedPacketsInMac 0
scalar RSUExampleScenario3.node[17].nic.mac1609_4 TooLittleTime 0
scalar RSUExampleScenario3.node[17].nic.mac1609_4 TimesIntoBackoff 205
scalar RSUExampleScenario3.node[17].nic.mac1609_4 SlotsBackoff 309
scalar RSUExampleScenario3.node[17].nic.mac1609_4 NumInternalContention 0
scalar RSUExampleScenario3.node[17].nic.mac1609_4 totalBusyTime 0.378368210567
scalar RSUExampleScenario3.node[17].nic.mac1609_4 retriesExceeded:count 0
attr source org_car2x_veins_modules_mac_sigRetriesExceeded
scalar RSUExampleScenario3.node[17].nic.mac1609_4 sentAcks:count 0
attr source org_car2x_veins_modules_mac_sigSentAck
scalar RSUExampleScenario3.node[17].nic.mac1609_4 sentPackets:count 205
attr source org_car2x_veins_modules_mac_sigSentPacket
scalar RSUExampleScenario3.node[17].nic.mac1609_4 collisions:count 0
attr source org_car2x_veins_modules_mac_sigCollision
scalar RSUExampleScenario3.node[17].nic.mac1609_4 channelBusy:timeavg 0.0018456985881317
attr source org_car2x_veins_modules_mac_sigChannelBusy
scalar RSUExampleScenario3.node[17].veinsmobility startTime 44
scalar RSUExampleScenario3.node[17].veinsmobility totalTime 204
scalar RSUExampleScenario3.node[17].veinsmobility stopTime 249
scalar RSUExampleScenario3.node[17].veinsmobility minSpeed 3.0038827248238
scalar RSUExampleScenario3.node[17].veinsmobility maxSpeed 23.741848117872
scalar RSUExampleScenario3.node[17].veinsmobility totalDistance 3236.1457328077
scalar RSUExampleScenario3.node[17].veinsmobility totalCO2Emission 564.79599422641
scalar RSUExampleScenario3.node[10].appl generatedWSMs 223
scalar RSUExampleScenario3.node[10].appl receivedWSMs 773
scalar RSUExampleScenario3.node[10].appl generatedBSMs 0
scalar RSUExampleScenario3.node[10].appl receivedBSMs 0
scalar RSUExampleScenario3.node[10].appl generatedWSAs 0
scalar RSUExampleScenario3.node[10].appl receivedWSAs 0
scalar RSUExampleScenario3.node[10].nic.phy80211p busyTime 0.0023272825112108
scalar RSUExampleScenario3.node[10].nic.mac1609_4 ReceivedUnicastPackets 0
scalar RSUExampleScenario3.node[10].nic.mac1609_4 ReceivedBroadcasts 773
scalar RSUExampleScenario3.node[10].nic.mac1609_4 SentPackets 223
scalar RSUExampleScenario3.node[10].nic.mac1609_4 SentAcknowledgements 0
scalar RSUExampleScenario3.node[10].nic.mac1609_4 RetriesExceeded 0
scalar RSUExampleScenario3.node[10].nic.mac1609_4 SNIRLostPackets 1464
scalar RSUExampleScenario3.node[10].nic.mac1609_4 RXTXLostPackets 1176
scalar RSUExampleScenario3.node[10].nic.mac1609_4 TotalLostPackets 2640
scalar RSUExampleScenario3.node[10].nic.mac1609_4 DroppedPacketsInMac 0
scalar RSUExampleScenario3.node[10].nic.mac1609_4 TooLittleTime 0
scalar RSUExampleScenario3.node[10].nic.mac1609_4 TimesIntoBackoff 223
scalar RSUExampleScenario3.node[10].nic.mac1609_4 SlotsBackoff 337
scalar RSUExampleScenario3.node[10].nic.mac1609_4 NumInternalContention 0
scalar RSUExampleScenario3.node[10].nic.mac1609_4 totalBusyTime 0.373515303648
scalar RSUExampleScenario3.node[10].nic.mac1609_4 retriesExceeded:count 0
attr source org_car2x_veins_modules_mac_sigRetriesExceeded
scalar RSUExampleScenario3.node[10].nic.mac1609_4 sentAcks:count 0
attr source org_car2x_veins_modules_mac_sigSentAck
scalar RSUExampleScenario3.node[10].nic.mac1609_4 sentPackets:count 223
attr source org_car2x_veins_modules_mac_sigSentPacket
scalar RSUExampleScenario3.node[10].nic.mac1609_4 collisions:count 0
attr source org_car2x_veins_modules_mac_sigCollision
scalar RSUExampleScenario3.node[10].nic.mac1609_4 channelBusy:timeavg 0.0016749565186009
attr source org_car2x_veins_modules_mac_sigChannelBusy
scalar RSUExampleScenario3.node[10].veinsmobility startTime 30
scalar RSUExampleScenario3.node[10].veinsmobility totalTime 222
scalar RSUExampleScenario3.node[10].veinsmobility stopTime 253
scalar RSUExampleScenario3.node[10].veinsmobility minSpeed 3.7956313625147
scalar RSUExampleScenario3.node[10].veinsmobility maxSpeed 13.701908641749
scalar RSUExampleScenario3.node[10].veinsmobility totalDistance 2990.3316092967
scalar RSUExampleScenario3.node[10].veinsmobility totalCO2Emission 463.55686278441
scalar RSUExampleScenario3.node[22].appl generatedWSMs 995
scalar RSUExampleScenario3.node[22].appl receivedWSMs 324
scalar RSUExampleScenario3.node[22].appl generatedBSMs 0
scalar RSUExampleScenario3.node[22].appl receivedBSMs 0
scalar RSUExampleScenario3.node[22].appl generatedWSAs 0
scalar RSUExampleScenario3.node[22].appl receivedWSAs 0
scalar RSUExampleScenario3.node[22].nic.phy80211p busyTime 0.001392
scalar RSUExampleScenario3.node[22].nic.mac1609_4 ReceivedUnicastPackets 0
scalar RSUExampleScenario3.node[22].nic.mac1609_4 ReceivedBroadcasts 324
scalar RSUExampleScenario3.node[22].nic.mac1609_4 SentPackets 995
scalar RSUExampleScenario3.node[22].nic.mac1609_4 SentAcknowledgements 0
scalar RSUExampleScenario3.node[22].nic.mac1609_4 RetriesExceeded 0
scalar RSUExampleScenario3.node[22].nic.mac1609_4 SNIRLostPackets 868
scalar RSUExampleScenario3.node[22].nic.mac1609_4 RXTXLostPackets 1562
scalar RSUExampleScenario3.node[22].nic.mac1609_4 TotalLostPackets 2430
scalar RSUExampleScenario3.node[22].nic.mac1609_4 DroppedPacketsInMac 0
scalar RSUExampleScenario3.node[22].nic.mac1609_4 TooLittleTime 0
scalar RSUExampleScenario3.node[22].nic.mac1609_4 TimesIntoBackoff 995
scalar RSUExampleScenario3.node[22].nic.mac1609_4 SlotsBackoff 1524
scalar RSUExampleScenario3.node[22].nic.mac1609_4 NumInternalContention 0
scalar RSUExampleScenario3.node[22].nic.mac1609_4 totalBusyTime 0.379413789298
scalar RSUExampleScenario3.node[22].nic.mac1609_4 retriesExceeded:count 0
attr source org_car2x_veins_modules_mac_sigRetriesExceeded
scalar RSUExampleScenario3.node[22].nic.mac1609_4 sentAcks:count 0
attr source org_car2x_veins_modules_mac_sigSentAck
scalar RSUExampleScenario3.node[22].nic.mac1609_4 sentPackets:count 995
attr source org_car2x_veins_modules_mac_sigSentPacket
scalar RSUExampleScenario3.node[22].nic.mac1609_4 collisions:count 0
attr source org_car2x_veins_modules_mac_sigCollision
scalar RSUExampleScenario3.node[22].nic.mac1609_4 channelBusy:timeavg 0.0019066019562714
attr source org_car2x_veins_modules_mac_sigChannelBusy
scalar RSUExampleScenario3.node[22].veinsmobility startTime 59
scalar RSUExampleScenario3.node[22].veinsmobility totalTime 198
scalar RSUExampleScenario3.node[22].veinsmobility stopTime 258
scalar RSUExampleScenario3.node[22].veinsmobility minSpeed 0
scalar RSUExampleScenario3.node[22].veinsmobility maxSpeed 26.208075152645
scalar RSUExampleScenario3.node[22].veinsmobility totalDistance 3470.6523237511
scalar RSUExampleScenario3.node[22].veinsmobility totalCO2Emission 738.10979460498
scalar RSUExampleScenario3.node[29].appl generatedWSMs 179
scalar RSUExampleScenario3.node[29].appl receivedWSMs 613
scalar RSUExampleScenario3.node[29].appl generatedBSMs 0
scalar RSUExampleScenario3.node[29].appl receivedBSMs 0
scalar RSUExampleScenario3.node[29].appl generatedWSAs 0
scalar RSUExampleScenario3.node[29].appl receivedWSAs 0
scalar RSUExampleScenario3.node[29].nic.phy80211p busyTime 0.002063374301676
scalar RSUExampleScenario3.node[29].nic.mac1609_4 ReceivedUnicastPackets 0
scalar RSUExampleScenario3.node[29].nic.mac1609_4 ReceivedBroadcasts 613
scalar RSUExampleScenario3.node[29].nic.mac1609_4 SentPackets 179
scalar RSUExampleScenario3.node[29].nic.mac1609_4 SentAcknowledgements 0
scalar RSUExampleScenario3.node[29].nic.mac1609_4 RetriesExceeded 0
scalar RSUExampleScenario3.node[29].nic.mac1609_4 SNIRLostPackets 979
scalar RSUExampleScenario3.node[29].nic.mac1609_4 RXTXLostPackets 1140
scalar RSUExampleScenario3.node[29].nic.mac1609_4 TotalLostPackets 2119
scalar RSUExampleScenario3.node[29].nic.mac1609_4 DroppedPacketsInMac 0
scalar RSUExampleScenario3.node[29].nic.mac1609_4 TooLittleTime 0
scalar RSUExampleScenario3.node[29].nic.mac1609_4 TimesIntoBackoff 179
scalar RSUExampleScenario3.node[29].nic.mac1609_4 SlotsBackoff 266
scalar RSUExampleScenario3.node[29].nic.mac1609_4 NumInternalContention 0
scalar RSUExampleScenario3.node[29].nic.mac1609_4 totalBusyTime 0.259815605219
scalar RSUExampleScenario3.node[29].nic.mac1609_4 retriesExceeded:count 0
attr source org_car2x_veins_modules_mac_sigRetriesExceeded
scalar RSUExampleScenario3.node[29].nic.mac1609_4 sentAcks:count 0
attr source org_car2x_veins_modules_mac_sigSentAck
scalar RSUExampleScenario3.node[29].nic.mac1609_4 sentPackets:count 179
attr source org_car2x_veins_modules_mac_sigSentPacket
scalar RSUExampleScenario3.node[29].nic.mac1609_4 collisions:count 0
attr source org_car2x_veins_modules_mac_sigCollision
scalar RSUExampleScenario3.node[29].nic.mac1609_4 channelBusy:timeavg 0.0014514838280391
attr source org_car2x_veins_modules_mac_sigChannelBusy
scalar RSUExampleScenario3.node[29].veinsmobility startTime 80
scalar RSUExampleScenario3.node[29].veinsmobility totalTime 178
scalar RSUExampleScenario3.node[29].veinsmobility stopTime 259
scalar RSUExampleScenario3.node[29].veinsmobility minSpeed 0
scalar RSUExampleScenario3.node[29].veinsmobility maxSpeed 26.444301779982
scalar RSUExampleScenario3.node[29].veinsmobility totalDistance 3470.5609150878
scalar RSUExampleScenario3.node[29].veinsmobility totalCO2Emission 732.4799325141
scalar RSUExampleScenario3.node[32].appl generatedWSMs 177
scalar RSUExampleScenario3.node[32].appl receivedWSMs 360
scalar RSUExampleScenario3.node[32].appl generatedBSMs 0
scalar RSUExampleScenario3.node[32].appl receivedBSMs 0
scalar RSUExampleScenario3.node[32].appl generatedWSAs 0
scalar RSUExampleScenario3.node[32].appl receivedWSAs 0
scalar RSUExampleScenario3.node[32].nic.phy80211p busyTime 0.0018402711864407
scalar RSUExampleScenario3.node[32].nic.mac1609_4 ReceivedUnicastPackets 0
scalar RSUExampleScenario3.node[32].nic.mac1609_4 ReceivedBroadcasts 360
scalar RSUExampleScenario3.node[32].nic.mac1609_4 SentPackets 177
scalar RSUExampleScenario3.node[32].nic.mac1609_4 SentAcknowledgements 0
scalar RSUExampleScenario3.node[32].nic.mac1609_4 RetriesExceeded 0
scalar RSUExampleScenario3.node[32].nic.mac1609_4 SNIRLostPackets 1044
scalar RSUExampleScenario3.node[32].nic.mac1609_4 RXTXLostPackets 911
scalar RSUExampleScenario3.node[32].nic.mac1609_4 TotalLostPackets 1955
scalar RSUExampleScenario3.node[32].nic.mac1609_4 DroppedPacketsInMac 0
scalar RSUExampleScenario3.node[32].nic.mac1609_4 TooLittleTime 0
scalar RSUExampleScenario3.node[32].nic.mac1609_4 TimesIntoBackoff 177
scalar RSUExampleScenario3.node[32].nic.mac1609_4 SlotsBackoff 278
scalar RSUExampleScenario3.node[32].nic.mac1609_4 NumInternalContention 0
scalar RSUExampleScenario3.node[32].nic.mac1609_4 totalBusyTime 0.234736286995
scalar RSUExampleScenario3.node[32].nic.mac1609_4 retriesExceeded:count 0
attr source org_car2x_veins_modules_mac_sigRetriesExceeded
scalar RSUExampleScenario3.node[32].nic.mac1609_4 sentAcks:count 0
attr source org_car2x_veins_modules_mac_sigSentAck
scalar RSUExampleScenario3.node[32].nic.mac1609_4 sentPackets:count 177
attr source org_car2x_veins_modules_mac_sigSentPacket
scalar RSUExampleScenario3.node[32].nic.mac1609_4 collisions:count 0
attr source org_car2x_veins_modules_mac_sigCollision
scalar RSUExampleScenario3.node[32].nic.mac1609_4 channelBusy:timeavg 0.0013261937118362
attr source org_car2x_veins_modules_mac_sigChannelBusy
scalar RSUExampleScenario3.node[32].veinsmobility startTime 84
scalar RSUExampleScenario3.node[32].veinsmobility totalTime 176
scalar RSUExampleScenario3.node[32].veinsmobility stopTime 261
scalar RSUExampleScenario3.node[32].veinsmobility minSpeed 0
scalar RSUExampleScenario3.node[32].veinsmobility maxSpeed 23.626562443086
scalar RSUExampleScenario3.node[32].veinsmobility totalDistance 3477.9051989461
scalar RSUExampleScenario3.node[32].veinsmobility totalCO2Emission 668.2616562582
scalar RSUExampleScenario3.node[13].appl generatedWSMs 238
scalar RSUExampleScenario3.node[13].appl receivedWSMs 920
scalar RSUExampleScenario3.node[13].appl generatedBSMs 0
scalar RSUExampleScenario3.node[13].appl receivedBSMs 0
scalar RSUExampleScenario3.node[13].appl generatedWSAs 0
scalar RSUExampleScenario3.node[13].appl receivedWSAs 0
scalar RSUExampleScenario3.node[13].nic.phy80211p busyTime 0.0025364033613446
scalar RSUExampleScenario3.node[13].nic.mac1609_4 ReceivedUnicastPackets 0
scalar RSUExampleScenario3.node[13].nic.mac1609_4 ReceivedBroadcasts 920
scalar RSUExampleScenario3.node[13].nic.mac1609_4 SentPackets 238
scalar RSUExampleScenario3.node[13].nic.mac1609_4 SentAcknowledgements 0
scalar RSUExampleScenario3.node[13].nic.mac1609_4 RetriesExceeded 0
scalar RSUExampleScenario3.node[13].nic.mac1609_4 SNIRLostPackets 1682
scalar RSUExampleScenario3.node[13].nic.mac1609_4 RXTXLostPackets 1516
scalar RSUExampleScenario3.node[13].nic.mac1609_4 TotalLostPackets 3198
scalar RSUExampleScenario3.node[13].nic.mac1609_4 DroppedPacketsInMac 0
scalar RSUExampleScenario3.node[13].nic.mac1609_4 TooLittleTime 0
scalar RSUExampleScenario3.node[13].nic.mac1609_4 TimesIntoBackoff 238
scalar RSUExampleScenario3.node[13].nic.mac1609_4 SlotsBackoff 366
scalar RSUExampleScenario3.node[13].nic.mac1609_4 NumInternalContention 0
scalar RSUExampleScenario3.node[13].nic.mac1609_4 totalBusyTime 0.416999586804
scalar RSUExampleScenario3.node[13].nic.mac1609_4 retriesExceeded:count 0
attr source org_car2x_veins_modules_mac_sigRetriesExceeded
scalar RSUExampleScenario3.node[13].nic.mac1609_4 sentAcks:count 0
attr source org_car2x_veins_modules_mac_sigSentAck
scalar RSUExampleScenario3.node[13].nic.mac1609_4 sentPackets:count 238
attr source org_car2x_veins_modules_mac_sigSentPacket
scalar RSUExampleScenario3.node[13].nic.mac1609_4 collisions:count 0
attr source org_car2x_veins_modules_mac_sigCollision
scalar RSUExampleScenario3.node[13].nic.mac1609_4 channelBusy:timeavg 0.0017520991042185
attr source org_car2x_veins_modules_mac_sigChannelBusy
scalar RSUExampleScenario3.node[13].veinsmobility startTime 38
scalar RSUExampleScenario3.node[13].veinsmobility totalTime 237
scalar RSUExampleScenario3.node[13].veinsmobility stopTime 276
scalar RSUExampleScenario3.node[13].veinsmobility minSpeed 0
scalar RSUExampleScenario3.node[13].veinsmobility maxSpeed 19.420632290314
scalar RSUExampleScenario3.node[13].veinsmobility totalDistance 3478.05918579
scalar RSUExampleScenario3.node[13].veinsmobility totalCO2Emission 635.00042980848
scalar RSUExampleScenario3.node[41].appl generatedWSMs 172
scalar RSUExampleScenario3.node[41].appl receivedWSMs 332
scalar RSUExampleScenario3.node[41].appl generatedBSMs 0
scalar RSUExampleScenario3.node[41].appl receivedBSMs 0
scalar RSUExampleScenario3.node[41].appl generatedWSAs 0
scalar RSUExampleScenario3.node[41].appl receivedWSAs 0
scalar RSUExampleScenario3.node[41].nic.phy80211p busyTime 0.001945023255814
scalar RSUExampleScenario3.node[41].nic.mac1609_4 ReceivedUnicastPackets 0
scalar RSUExampleScenario3.node[41].nic.mac1609_4 ReceivedBroadcasts 332
scalar RSUExampleScenario3.node[41].nic.mac1609_4 SentPackets 172
scalar RSUExampleScenario3.node[41].nic.mac1609_4 SentAcknowledgements 0
scalar RSUExampleScenario3.node[41].nic.mac1609_4 RetriesExceeded 0
scalar RSUExampleScenario3.node[41].nic.mac1609_4 SNIRLostPackets 1110
scalar RSUExampleScenario3.node[41].nic.mac1609_4 RXTXLostPackets 975
scalar RSUExampleScenario3.node[41].nic.mac1609_4 TotalLostPackets 2085
scalar RSUExampleScenario3.node[41].nic.mac1609_4 DroppedPacketsInMac 0
scalar RSUExampleScenario3.node[41].nic.mac1609_4 TooLittleTime 0
scalar RSUExampleScenario3.node[41].nic.mac1609_4 TimesIntoBackoff 172
scalar RSUExampleScenario3.node[41].nic.mac1609_4 SlotsBackoff 277
scalar RSUExampleScenario3.node[41].nic.mac1609_4 NumInternalContention 0
scalar RSUExampleScenario3.node[41].nic.mac1609_4 totalBusyTime 0.212487697481
scalar RSUExampleScenario3.node[41].nic.mac1609_4 retriesExceeded:count 0
attr source org_car2x_veins_modules_mac_sigRetriesExceeded
scalar RSUExampleScenario3.node[41].nic.mac1609_4 sentAcks:count 0
attr source org_car2x_veins_modules_mac_sigSentAck
scalar RSUExampleScenario3.node[41].nic.mac1609_4 sentPackets:count 172
attr source org_car2x_veins_modules_mac_sigSentPacket
scalar RSUExampleScenario3.node[41].nic.mac1609_4 collisions:count 0
attr source org_car2x_veins_modules_mac_sigCollision
scalar RSUExampleScenario3.node[41].nic.mac1609_4 channelBusy:timeavg 0.0012353935900058
attr source org_car2x_veins_modules_mac_sigChannelBusy
scalar RSUExampleScenario3.node[41].veinsmobility startTime 106
scalar RSUExampleScenario3.node[41].veinsmobility totalTime 171
scalar RSUExampleScenario3.node[41].veinsmobility stopTime 278
scalar RSUExampleScenario3.node[41].veinsmobility minSpeed 2.9988130668973
scalar RSUExampleScenario3.node[41].veinsmobility maxSpeed 31.652943299162
scalar RSUExampleScenario3.node[41].veinsmobility totalDistance 3217.5417282947
scalar RSUExampleScenario3.node[41].veinsmobility totalCO2Emission 577.75939108573
scalar RSUExampleScenario3.node[31].appl generatedWSMs 198
scalar RSUExampleScenario3.node[31].appl receivedWSMs 460
scalar RSUExampleScenario3.node[31].appl generatedBSMs 0
scalar RSUExampleScenario3.node[31].appl receivedBSMs 0
scalar RSUExampleScenario3.node[31].appl generatedWSAs 0
scalar RSUExampleScenario3.node[31].appl receivedWSAs 0
scalar RSUExampleScenario3.node[31].nic.phy80211p busyTime 0.0019063838383839
scalar RSUExampleScenario3.node[31].nic.mac1609_4 ReceivedUnicastPackets 0
scalar RSUExampleScenario3.node[31].nic.mac1609_4 ReceivedBroadcasts 460
scalar RSUExampleScenario3.node[31].nic.mac1609_4 SentPackets 198
scalar RSUExampleScenario3.node[31].nic.mac1609_4 SentAcknowledgements 0
scalar RSUExampleScenario3.node[31].nic.mac1609_4 RetriesExceeded 0
scalar RSUExampleScenario3.node[31].nic.mac1609_4 SNIRLostPackets 1167
scalar RSUExampleScenario3.node[31].nic.mac1609_4 RXTXLostPackets 1394
scalar RSUExampleScenario3.node[31].nic.mac1609_4 TotalLostPackets 2561
scalar RSUExampleScenario3.node[31].nic.mac1609_4 DroppedPacketsInMac 0
scalar RSUExampleScenario3.node[31].nic.mac1609_4 TooLittleTime 0
scalar RSUExampleScenario3.node[31].nic.mac1609_4 TimesIntoBackoff 198
scalar RSUExampleScenario3.node[31].nic.mac1609_4 SlotsBackoff 285
scalar RSUExampleScenario3.node[31].nic.mac1609_4 NumInternalContention 0
scalar RSUExampleScenario3.node[31].nic.mac1609_4 totalBusyTime 0.255898245031
scalar RSUExampleScenario3.node[31].nic.mac1609_4 retriesExceeded:count 0
attr source org_car2x_veins_modules_mac_sigRetriesExceeded
scalar RSUExampleScenario3.node[31].nic.mac1609_4 sentAcks:count 0
attr source org_car2x_veins_modules_mac_sigSentAck
scalar RSUExampleScenario3.node[31].nic.mac1609_4 sentPackets:count 198
attr source org_car2x_veins_modules_mac_sigSentPacket
scalar RSUExampleScenario3.node[31].nic.mac1609_4 collisions:count 0
attr source org_car2x_veins_modules_mac_sigCollision
scalar RSUExampleScenario3.node[31].nic.mac1609_4 channelBusy:timeavg 0.0012924153789445
attr source org_car2x_veins_modules_mac_sigChannelBusy
scalar RSUExampleScenario3.node[31].veinsmobility startTime 82
scalar RSUExampleScenario3.node[31].veinsmobility totalTime 197
scalar RSUExampleScenario3.node[31].veinsmobility stopTime 280
scalar RSUExampleScenario3.node[31].veinsmobility minSpeed 0
scalar RSUExampleScenario3.node[31].veinsmobility maxSpeed 30.313390478364
scalar RSUExampleScenario3.node[31].veinsmobility totalDistance 3223.3710367602
scalar RSUExampleScenario3.node[31].veinsmobility totalCO2Emission 621.29341334313
scalar RSUExampleScenario3.node[53].appl generatedWSMs 154
scalar RSUExampleScenario3.node[53].appl receivedWSMs 463
scalar RSUExampleScenario3.node[53].appl generatedBSMs 0
scalar RSUExampleScenario3.node[53].appl receivedBSMs 0
scalar RSUExampleScenario3.node[53].appl generatedWSAs 0
scalar RSUExampleScenario3.node[53].appl receivedWSAs 0
scalar RSUExampleScenario3.node[53].nic.phy80211p busyTime 0.0021452467532468
scalar RSUExampleScenario3.node[53].nic.mac1609_4 ReceivedUnicastPackets 0
scalar RSUExampleScenario3.node[53].nic.mac1609_4 ReceivedBroadcasts 463
scalar RSUExampleScenario3.node[53].nic.mac1609_4 SentPackets 154
scalar RSUExampleScenario3.node[53].nic.mac1609_4 SentAcknowledgements 0
scalar RSUExampleScenario3.node[53].nic.mac1609_4 RetriesExceeded 0
scalar RSUExampleScenario3.node[53].nic.mac1609_4 SNIRLostPackets 961
scalar RSUExampleScenario3.node[53].nic.mac1609_4 RXTXLostPackets 936
scalar RSUExampleScenario3.node[53].nic.mac1609_4 TotalLostPackets 1897
scalar RSUExampleScenario3.node[53].nic.mac1609_4 DroppedPacketsInMac 0
scalar RSUExampleScenario3.node[53].nic.mac1609_4 TooLittleTime 0
scalar RSUExampleScenario3.node[53].nic.mac1609_4 TimesIntoBackoff 154
scalar RSUExampleScenario3.node[53].nic.mac1609_4 SlotsBackoff 243
scalar RSUExampleScenario3.node[53].nic.mac1609_4 NumInternalContention 0
scalar RSUExampleScenario3.node[53].nic.mac1609_4 totalBusyTime 0.216617227089
scalar RSUExampleScenario3.node[53].nic.mac1609_4 retriesExceeded:count 0
attr source org_car2x_veins_modules_mac_sigRetriesExceeded
scalar RSUExampleScenario3.node[53].nic.mac1609_4 sentAcks:count 0
attr source org_car2x_veins_modules_mac_sigSentAck
scalar RSUExampleScenario3.node[53].nic.mac1609_4 sentPackets:count 154
attr source org_car2x_veins_modules_mac_sigSentPacket
scalar RSUExampleScenario3.node[53].nic.mac1609_4 collisions:count 0
attr source org_car2x_veins_modules_mac_sigCollision
scalar RSUExampleScenario3.node[53].nic.mac1609_4 channelBusy:timeavg 0.0014066053707078
attr source org_car2x_veins_modules_mac_sigChannelBusy
scalar RSUExampleScenario3.node[53].veinsmobility startTime 133
scalar RSUExampleScenario3.node[53].veinsmobility totalTime 153
scalar RSUExampleScenario3.node[53].veinsmobility stopTime 287
scalar RSUExampleScenario3.node[53].veinsmobility minSpeed 2.7371560482118
scalar RSUExampleScenario3.node[53].veinsmobility maxSpeed 32.700814428065
scalar RSUExampleScenario3.node[53].veinsmobility totalDistance 3216.9322389586
scalar RSUExampleScenario3.node[53].veinsmobility totalCO2Emission 670.03224581538
scalar RSUExampleScenario3.node[33].appl generatedWSMs 209
scalar RSUExampleScenario3.node[33].appl receivedWSMs 729
scalar RSUExampleScenario3.node[33].appl generatedBSMs 0
scalar RSUExampleScenario3.node[33].appl receivedBSMs 0
scalar RSUExampleScenario3.node[33].appl generatedWSAs 0
scalar RSUExampleScenario3.node[33].appl receivedWSAs 0
scalar RSUExampleScenario3.node[33].nic.phy80211p busyTime 0.0023666220095695
scalar RSUExampleScenario3.node[33].nic.mac1609_4 ReceivedUnicastPackets 0
scalar RSUExampleScenario3.node[33].nic.mac1609_4 ReceivedBroadcasts 729
scalar RSUExampleScenario3.node[33].nic.mac1609_4 SentPackets 209
scalar RSUExampleScenario3.node[33].nic.mac1609_4 SentAcknowledgements 0
[...]
scalar RSUExampleScenario3.node[1338].nic.mac1609_4 SentAcknowledgements 0
scalar RSUExampleScenario3.node[1338].nic.mac1609_4 RetriesExceeded 0
scalar RSUExampleScenario3.node[1338].nic.mac1609_4 SNIRLostPackets 7
scalar RSUExampleScenario3.node[1338].nic.mac1609_4 RXTXLostPackets 33
scalar RSUExampleScenario3.node[1338].nic.mac1609_4 TotalLostPackets 40
scalar RSUExampleScenario3.node[1338].nic.mac1609_4 DroppedPacketsInMac 0
scalar RSUExampleScenario3.node[1338].nic.mac1609_4 TooLittleTime 0
scalar RSUExampleScenario3.node[1338].nic.mac1609_4 TimesIntoBackoff 12
scalar RSUExampleScenario3.node[1338].nic.mac1609_4 SlotsBackoff 12
scalar RSUExampleScenario3.node[1338].nic.mac1609_4 NumInternalContention 0
scalar RSUExampleScenario3.node[1338].nic.mac1609_4 totalBusyTime 0.01532426136
scalar RSUExampleScenario3.node[1338].nic.mac1609_4 retriesExceeded:count 0
attr source org_car2x_veins_modules_mac_sigRetriesExceeded
scalar RSUExampleScenario3.node[1338].nic.mac1609_4 sentAcks:count 0
attr source org_car2x_veins_modules_mac_sigSentAck
scalar RSUExampleScenario3.node[1338].nic.mac1609_4 sentPackets:count 12
attr source org_car2x_veins_modules_mac_sigSentPacket
scalar RSUExampleScenario3.node[1338].nic.mac1609_4 collisions:count 0
attr source org_car2x_veins_modules_mac_sigCollision
scalar RSUExampleScenario3.node[1338].nic.mac1609_4 channelBusy:timeavg 0.00127702178
attr source org_car2x_veins_modules_mac_sigChannelBusy
scalar RSUExampleScenario3.node[1338].veinsmobility startTime 3588
scalar RSUExampleScenario3.node[1338].veinsmobility totalTime 12
scalar RSUExampleScenario3.node[1338].veinsmobility stopTime 3600
scalar RSUExampleScenario3.node[1338].veinsmobility minSpeed 2.7841993485208
scalar RSUExampleScenario3.node[1338].veinsmobility maxSpeed 23.633841519596
scalar RSUExampleScenario3.node[1338].veinsmobility totalDistance 150.64578055244
scalar RSUExampleScenario3.node[1338].veinsmobility totalCO2Emission 95.554976906067
scalar RSUExampleScenario3.node[1339].appl generatedWSMs 60
scalar RSUExampleScenario3.node[1339].appl receivedWSMs 3
scalar RSUExampleScenario3.node[1339].appl generatedBSMs 0
scalar RSUExampleScenario3.node[1339].appl receivedBSMs 0
scalar RSUExampleScenario3.node[1339].appl generatedWSAs 0
scalar RSUExampleScenario3.node[1339].appl receivedWSAs 0
scalar RSUExampleScenario3.node[1339].nic.phy80211p busyTime 0.00033745454545455
scalar RSUExampleScenario3.node[1339].nic.mac1609_4 ReceivedUnicastPackets 0
scalar RSUExampleScenario3.node[1339].nic.mac1609_4 ReceivedBroadcasts 3
scalar RSUExampleScenario3.node[1339].nic.mac1609_4 SentPackets 55
scalar RSUExampleScenario3.node[1339].nic.mac1609_4 SentAcknowledgements 0
scalar RSUExampleScenario3.node[1339].nic.mac1609_4 RetriesExceeded 0
scalar RSUExampleScenario3.node[1339].nic.mac1609_4 SNIRLostPackets 13
scalar RSUExampleScenario3.node[1339].nic.mac1609_4 RXTXLostPackets 31
scalar RSUExampleScenario3.node[1339].nic.mac1609_4 TotalLostPackets 44
scalar RSUExampleScenario3.node[1339].nic.mac1609_4 DroppedPacketsInMac 0
scalar RSUExampleScenario3.node[1339].nic.mac1609_4 TooLittleTime 0
scalar RSUExampleScenario3.node[1339].nic.mac1609_4 TimesIntoBackoff 55
scalar RSUExampleScenario3.node[1339].nic.mac1609_4 SlotsBackoff 68
scalar RSUExampleScenario3.node[1339].nic.mac1609_4 NumInternalContention 0
scalar RSUExampleScenario3.node[1339].nic.mac1609_4 totalBusyTime 0.014439290745
scalar RSUExampleScenario3.node[1339].nic.mac1609_4 retriesExceeded:count 0
attr source org_car2x_veins_modules_mac_sigRetriesExceeded
scalar RSUExampleScenario3.node[1339].nic.mac1609_4 sentAcks:count 0
attr source org_car2x_veins_modules_mac_sigSentAck
scalar RSUExampleScenario3.node[1339].nic.mac1609_4 sentPackets:count 55
attr source org_car2x_veins_modules_mac_sigSentPacket
scalar RSUExampleScenario3.node[1339].nic.mac1609_4 collisions:count 0
attr source org_car2x_veins_modules_mac_sigCollision
scalar RSUExampleScenario3.node[1339].nic.mac1609_4 channelBusy:timeavg 0.001312662795
attr source org_car2x_veins_modules_mac_sigChannelBusy
scalar RSUExampleScenario3.node[1339].veinsmobility startTime 3589
scalar RSUExampleScenario3.node[1339].veinsmobility totalTime 11
scalar RSUExampleScenario3.node[1339].veinsmobility stopTime 3600
scalar RSUExampleScenario3.node[1339].veinsmobility minSpeed 3.1058424418211
scalar RSUExampleScenario3.node[1339].veinsmobility maxSpeed 14.547213189737
scalar RSUExampleScenario3.node[1339].veinsmobility totalDistance 115.87075633397
scalar RSUExampleScenario3.node[1339].veinsmobility totalCO2Emission 45.608250799184
scalar RSUExampleScenario3.node[1340].appl generatedWSMs 10
scalar RSUExampleScenario3.node[1340].appl receivedWSMs 38
scalar RSUExampleScenario3.node[1340].appl generatedBSMs 0
scalar RSUExampleScenario3.node[1340].appl receivedBSMs 0
scalar RSUExampleScenario3.node[1340].appl generatedWSAs 0
scalar RSUExampleScenario3.node[1340].appl receivedWSAs 0
scalar RSUExampleScenario3.node[1340].nic.phy80211p busyTime 0.0013146666666667
scalar RSUExampleScenario3.node[1340].nic.mac1609_4 ReceivedUnicastPackets 0
scalar RSUExampleScenario3.node[1340].nic.mac1609_4 ReceivedBroadcasts 38
scalar RSUExampleScenario3.node[1340].nic.mac1609_4 SentPackets 9
scalar RSUExampleScenario3.node[1340].nic.mac1609_4 SentAcknowledgements 0
scalar RSUExampleScenario3.node[1340].nic.mac1609_4 RetriesExceeded 0
scalar RSUExampleScenario3.node[1340].nic.mac1609_4 SNIRLostPackets 13
scalar RSUExampleScenario3.node[1340].nic.mac1609_4 RXTXLostPackets 25
scalar RSUExampleScenario3.node[1340].nic.mac1609_4 TotalLostPackets 38
scalar RSUExampleScenario3.node[1340].nic.mac1609_4 DroppedPacketsInMac 0
scalar RSUExampleScenario3.node[1340].nic.mac1609_4 TooLittleTime 0
scalar RSUExampleScenario3.node[1340].nic.mac1609_4 TimesIntoBackoff 9
scalar RSUExampleScenario3.node[1340].nic.mac1609_4 SlotsBackoff 11
scalar RSUExampleScenario3.node[1340].nic.mac1609_4 NumInternalContention 0
scalar RSUExampleScenario3.node[1340].nic.mac1609_4 totalBusyTime 0.011609056293
scalar RSUExampleScenario3.node[1340].nic.mac1609_4 retriesExceeded:count 0
attr source org_car2x_veins_modules_mac_sigRetriesExceeded
scalar RSUExampleScenario3.node[1340].nic.mac1609_4 sentAcks:count 0
attr source org_car2x_veins_modules_mac_sigSentAck
scalar RSUExampleScenario3.node[1340].nic.mac1609_4 sentPackets:count 9
attr source org_car2x_veins_modules_mac_sigSentPacket
scalar RSUExampleScenario3.node[1340].nic.mac1609_4 collisions:count 0
attr source org_car2x_veins_modules_mac_sigCollision
scalar RSUExampleScenario3.node[1340].nic.mac1609_4 channelBusy:timeavg 0.0012898951436667
attr source org_car2x_veins_modules_mac_sigChannelBusy
scalar RSUExampleScenario3.node[1340].veinsmobility startTime 3591
scalar RSUExampleScenario3.node[1340].veinsmobility totalTime 9
scalar RSUExampleScenario3.node[1340].veinsmobility stopTime 3600
scalar RSUExampleScenario3.node[1340].veinsmobility minSpeed 2.2572046234347
scalar RSUExampleScenario3.node[1340].veinsmobility maxSpeed 15.720252084261
scalar RSUExampleScenario3.node[1340].veinsmobility totalDistance 82.260906921795
scalar RSUExampleScenario3.node[1340].veinsmobility totalCO2Emission 46.70991393082
scalar RSUExampleScenario3.node[1341].appl generatedWSMs 8
scalar RSUExampleScenario3.node[1341].appl receivedWSMs 29
scalar RSUExampleScenario3.node[1341].appl generatedBSMs 0
scalar RSUExampleScenario3.node[1341].appl receivedBSMs 0
scalar RSUExampleScenario3.node[1341].appl generatedWSAs 0
scalar RSUExampleScenario3.node[1341].appl receivedWSAs 0
scalar RSUExampleScenario3.node[1341].nic.phy80211p busyTime 0.0010937142857143
scalar RSUExampleScenario3.node[1341].nic.mac1609_4 ReceivedUnicastPackets 0
scalar RSUExampleScenario3.node[1341].nic.mac1609_4 ReceivedBroadcasts 29
scalar RSUExampleScenario3.node[1341].nic.mac1609_4 SentPackets 7
scalar RSUExampleScenario3.node[1341].nic.mac1609_4 SentAcknowledgements 0
scalar RSUExampleScenario3.node[1341].nic.mac1609_4 RetriesExceeded 0
scalar RSUExampleScenario3.node[1341].nic.mac1609_4 SNIRLostPackets 4
scalar RSUExampleScenario3.node[1341].nic.mac1609_4 RXTXLostPackets 18
scalar RSUExampleScenario3.node[1341].nic.mac1609_4 TotalLostPackets 22
scalar RSUExampleScenario3.node[1341].nic.mac1609_4 DroppedPacketsInMac 0
scalar RSUExampleScenario3.node[1341].nic.mac1609_4 TooLittleTime 0
scalar RSUExampleScenario3.node[1341].nic.mac1609_4 TimesIntoBackoff 7
scalar RSUExampleScenario3.node[1341].nic.mac1609_4 SlotsBackoff 14
scalar RSUExampleScenario3.node[1341].nic.mac1609_4 NumInternalContention 0
scalar RSUExampleScenario3.node[1341].nic.mac1609_4 totalBusyTime 0.008591032084
scalar RSUExampleScenario3.node[1341].nic.mac1609_4 retriesExceeded:count 0
attr source org_car2x_veins_modules_mac_sigRetriesExceeded
scalar RSUExampleScenario3.node[1341].nic.mac1609_4 sentAcks:count 0
attr source org_car2x_veins_modules_mac_sigSentAck
scalar RSUExampleScenario3.node[1341].nic.mac1609_4 sentPackets:count 7
attr source org_car2x_veins_modules_mac_sigSentPacket
scalar RSUExampleScenario3.node[1341].nic.mac1609_4 collisions:count 0
attr source org_car2x_veins_modules_mac_sigCollision
scalar RSUExampleScenario3.node[1341].nic.mac1609_4 channelBusy:timeavg 0.0012272902977143
attr source org_car2x_veins_modules_mac_sigChannelBusy
scalar RSUExampleScenario3.node[1341].veinsmobility startTime 3593
scalar RSUExampleScenario3.node[1341].veinsmobility totalTime 7
scalar RSUExampleScenario3.node[1341].veinsmobility stopTime 3600
scalar RSUExampleScenario3.node[1341].veinsmobility minSpeed 3.6782812769966
scalar RSUExampleScenario3.node[1341].veinsmobility maxSpeed 15.624559988845
scalar RSUExampleScenario3.node[1341].veinsmobility totalDistance 61.651454863239
scalar RSUExampleScenario3.node[1341].veinsmobility totalCO2Emission 41.317022860693
scalar RSUExampleScenario3.node[1342].appl generatedWSMs 5
scalar RSUExampleScenario3.node[1342].appl receivedWSMs 0
scalar RSUExampleScenario3.node[1342].appl generatedBSMs 0
scalar RSUExampleScenario3.node[1342].appl receivedBSMs 0
scalar RSUExampleScenario3.node[1342].appl generatedWSAs 0
scalar RSUExampleScenario3.node[1342].appl receivedWSAs 0
scalar RSUExampleScenario3.node[1342].nic.phy80211p busyTime 0
scalar RSUExampleScenario3.node[1342].nic.mac1609_4 ReceivedUnicastPackets 0
scalar RSUExampleScenario3.node[1342].nic.mac1609_4 ReceivedBroadcasts 0
scalar RSUExampleScenario3.node[1342].nic.mac1609_4 SentPackets 4
scalar RSUExampleScenario3.node[1342].nic.mac1609_4 SentAcknowledgements 0
scalar RSUExampleScenario3.node[1342].nic.mac1609_4 RetriesExceeded 0
scalar RSUExampleScenario3.node[1342].nic.mac1609_4 SNIRLostPackets 0
scalar RSUExampleScenario3.node[1342].nic.mac1609_4 RXTXLostPackets 0
scalar RSUExampleScenario3.node[1342].nic.mac1609_4 TotalLostPackets 0
scalar RSUExampleScenario3.node[1342].nic.mac1609_4 DroppedPacketsInMac 0
scalar RSUExampleScenario3.node[1342].nic.mac1609_4 TooLittleTime 0
scalar RSUExampleScenario3.node[1342].nic.mac1609_4 TimesIntoBackoff 4
scalar RSUExampleScenario3.node[1342].nic.mac1609_4 SlotsBackoff 6
scalar RSUExampleScenario3.node[1342].nic.mac1609_4 NumInternalContention 0
scalar RSUExampleScenario3.node[1342].nic.mac1609_4 totalBusyTime 0.000932
scalar RSUExampleScenario3.node[1342].nic.mac1609_4 retriesExceeded:count 0
attr source org_car2x_veins_modules_mac_sigRetriesExceeded
scalar RSUExampleScenario3.node[1342].nic.mac1609_4 sentAcks:count 0
attr source org_car2x_veins_modules_mac_sigSentAck
scalar RSUExampleScenario3.node[1342].nic.mac1609_4 sentPackets:count 4
attr source org_car2x_veins_modules_mac_sigSentPacket
scalar RSUExampleScenario3.node[1342].nic.mac1609_4 collisions:count 0
attr source org_car2x_veins_modules_mac_sigCollision
scalar RSUExampleScenario3.node[1342].nic.mac1609_4 channelBusy:timeavg 0.000233
attr source org_car2x_veins_modules_mac_sigChannelBusy
scalar RSUExampleScenario3.node[1342].veinsmobility startTime 3596
scalar RSUExampleScenario3.node[1342].veinsmobility totalTime 4
scalar RSUExampleScenario3.node[1342].veinsmobility stopTime 3600
scalar RSUExampleScenario3.node[1342].veinsmobility minSpeed 2.8662625095262
scalar RSUExampleScenario3.node[1342].veinsmobility maxSpeed 8.9358159085982
scalar RSUExampleScenario3.node[1342].veinsmobility totalDistance 20.116721532332
scalar RSUExampleScenario3.node[1342].veinsmobility totalCO2Emission 14.562012013307
scalar RSUExampleScenario3.node[1343].appl generatedWSMs 5
scalar RSUExampleScenario3.node[1343].appl receivedWSMs 16
scalar RSUExampleScenario3.node[1343].appl generatedBSMs 0
scalar RSUExampleScenario3.node[1343].appl receivedBSMs 0
scalar RSUExampleScenario3.node[1343].appl generatedWSAs 0
scalar RSUExampleScenario3.node[1343].appl receivedWSAs 0
scalar RSUExampleScenario3.node[1343].nic.phy80211p busyTime 0.001334
scalar RSUExampleScenario3.node[1343].nic.mac1609_4 ReceivedUnicastPackets 0
scalar RSUExampleScenario3.node[1343].nic.mac1609_4 ReceivedBroadcasts 16
scalar RSUExampleScenario3.node[1343].nic.mac1609_4 SentPackets 4
scalar RSUExampleScenario3.node[1343].nic.mac1609_4 SentAcknowledgements 0
scalar RSUExampleScenario3.node[1343].nic.mac1609_4 RetriesExceeded 0
scalar RSUExampleScenario3.node[1343].nic.mac1609_4 SNIRLostPackets 7
scalar RSUExampleScenario3.node[1343].nic.mac1609_4 RXTXLostPackets 13
scalar RSUExampleScenario3.node[1343].nic.mac1609_4 TotalLostPackets 20
scalar RSUExampleScenario3.node[1343].nic.mac1609_4 DroppedPacketsInMac 0
scalar RSUExampleScenario3.node[1343].nic.mac1609_4 TooLittleTime 0
scalar RSUExampleScenario3.node[1343].nic.mac1609_4 TimesIntoBackoff 4
scalar RSUExampleScenario3.node[1343].nic.mac1609_4 SlotsBackoff 3
scalar RSUExampleScenario3.node[1343].nic.mac1609_4 NumInternalContention 0
scalar RSUExampleScenario3.node[1343].nic.mac1609_4 totalBusyTime 0.00534
scalar RSUExampleScenario3.node[1343].nic.mac1609_4 retriesExceeded:count 0
attr source org_car2x_veins_modules_mac_sigRetriesExceeded
scalar RSUExampleScenario3.node[1343].nic.mac1609_4 sentAcks:count 0
attr source org_car2x_veins_modules_mac_sigSentAck
scalar RSUExampleScenario3.node[1343].nic.mac1609_4 sentPackets:count 4
attr source org_car2x_veins_modules_mac_sigSentPacket
scalar RSUExampleScenario3.node[1343].nic.mac1609_4 collisions:count 0
attr source org_car2x_veins_modules_mac_sigCollision
scalar RSUExampleScenario3.node[1343].nic.mac1609_4 channelBusy:timeavg 0.001335
attr source org_car2x_veins_modules_mac_sigChannelBusy
scalar RSUExampleScenario3.node[1343].veinsmobility startTime 3596
scalar RSUExampleScenario3.node[1343].veinsmobility totalTime 4
scalar RSUExampleScenario3.node[1343].veinsmobility stopTime 3600
scalar RSUExampleScenario3.node[1343].veinsmobility minSpeed 2.167049921002
scalar RSUExampleScenario3.node[1343].veinsmobility maxSpeed 8.0012374185952
scalar RSUExampleScenario3.node[1343].veinsmobility totalDistance 16.738508358168
scalar RSUExampleScenario3.node[1343].veinsmobility totalCO2Emission 12.794878411694
scalar RSUExampleScenario3.node[1344].appl generatedWSMs 4
scalar RSUExampleScenario3.node[1344].appl receivedWSMs 13
scalar RSUExampleScenario3.node[1344].appl generatedBSMs 0
scalar RSUExampleScenario3.node[1344].appl receivedBSMs 0
scalar RSUExampleScenario3.node[1344].appl generatedWSAs 0
scalar RSUExampleScenario3.node[1344].appl receivedWSAs 0
scalar RSUExampleScenario3.node[1344].nic.phy80211p busyTime 0.00116
scalar RSUExampleScenario3.node[1344].nic.mac1609_4 ReceivedUnicastPackets 0
scalar RSUExampleScenario3.node[1344].nic.mac1609_4 ReceivedBroadcasts 13
scalar RSUExampleScenario3.node[1344].nic.mac1609_4 SentPackets 3
scalar RSUExampleScenario3.node[1344].nic.mac1609_4 SentAcknowledgements 0
scalar RSUExampleScenario3.node[1344].nic.mac1609_4 RetriesExceeded 0
scalar RSUExampleScenario3.node[1344].nic.mac1609_4 SNIRLostPackets 2
scalar RSUExampleScenario3.node[1344].nic.mac1609_4 RXTXLostPackets 6
scalar RSUExampleScenario3.node[1344].nic.mac1609_4 TotalLostPackets 8
scalar RSUExampleScenario3.node[1344].nic.mac1609_4 DroppedPacketsInMac 0
scalar RSUExampleScenario3.node[1344].nic.mac1609_4 TooLittleTime 0
scalar RSUExampleScenario3.node[1344].nic.mac1609_4 TimesIntoBackoff 3
scalar RSUExampleScenario3.node[1344].nic.mac1609_4 SlotsBackoff 4
scalar RSUExampleScenario3.node[1344].nic.mac1609_4 NumInternalContention 0
scalar RSUExampleScenario3.node[1344].nic.mac1609_4 totalBusyTime 0.003715
scalar RSUExampleScenario3.node[1344].nic.mac1609_4 retriesExceeded:count 0
attr source org_car2x_veins_modules_mac_sigRetriesExceeded
scalar RSUExampleScenario3.node[1344].nic.mac1609_4 sentAcks:count 0
attr source org_car2x_veins_modules_mac_sigSentAck
scalar RSUExampleScenario3.node[1344].nic.mac1609_4 sentPackets:count 3
attr source org_car2x_veins_modules_mac_sigSentPacket
scalar RSUExampleScenario3.node[1344].nic.mac1609_4 collisions:count 0
attr source org_car2x_veins_modules_mac_sigCollision
scalar RSUExampleScenario3.node[1344].nic.mac1609_4 channelBusy:timeavg 0.0012383333333333
attr source org_car2x_veins_modules_mac_sigChannelBusy
scalar RSUExampleScenario3.node[1344].veinsmobility startTime 3597
scalar RSUExampleScenario3.node[1344].veinsmobility totalTime 3
scalar RSUExampleScenario3.node[1344].veinsmobility stopTime 3600
scalar RSUExampleScenario3.node[1344].veinsmobility minSpeed 3.6755870710319
scalar RSUExampleScenario3.node[1344].veinsmobility maxSpeed 7.7164058916439
scalar RSUExampleScenario3.node[1344].veinsmobility totalDistance 14.465170016592
scalar RSUExampleScenario3.node[1344].veinsmobility totalCO2Emission 9.4701393059563
scalar RSUExampleScenario3.node[1345].appl generatedWSMs 1
scalar RSUExampleScenario3.node[1345].appl receivedWSMs 0
scalar RSUExampleScenario3.node[1345].appl generatedBSMs 0
scalar RSUExampleScenario3.node[1345].appl receivedBSMs 0
scalar RSUExampleScenario3.node[1345].appl generatedWSAs 0
scalar RSUExampleScenario3.node[1345].appl receivedWSAs 0
scalar RSUExampleScenario3.node[1345].nic.phy80211p busyTime -nan
scalar RSUExampleScenario3.node[1345].nic.mac1609_4 ReceivedUnicastPackets 0
scalar RSUExampleScenario3.node[1345].nic.mac1609_4 ReceivedBroadcasts 0
scalar RSUExampleScenario3.node[1345].nic.mac1609_4 SentPackets 0
scalar RSUExampleScenario3.node[1345].nic.mac1609_4 SentAcknowledgements 0
scalar RSUExampleScenario3.node[1345].nic.mac1609_4 RetriesExceeded 0
scalar RSUExampleScenario3.node[1345].nic.mac1609_4 SNIRLostPackets 0
scalar RSUExampleScenario3.node[1345].nic.mac1609_4 RXTXLostPackets 0
scalar RSUExampleScenario3.node[1345].nic.mac1609_4 TotalLostPackets 0
scalar RSUExampleScenario3.node[1345].nic.mac1609_4 DroppedPacketsInMac 0
scalar RSUExampleScenario3.node[1345].nic.mac1609_4 TooLittleTime 0
scalar RSUExampleScenario3.node[1345].nic.mac1609_4 TimesIntoBackoff 0
scalar RSUExampleScenario3.node[1345].nic.mac1609_4 SlotsBackoff 0
scalar RSUExampleScenario3.node[1345].nic.mac1609_4 NumInternalContention 0
scalar RSUExampleScenario3.node[1345].nic.mac1609_4 totalBusyTime 0
scalar RSUExampleScenario3.node[1345].nic.mac1609_4 retriesExceeded:count 0
attr source org_car2x_veins_modules_mac_sigRetriesExceeded
scalar RSUExampleScenario3.node[1345].nic.mac1609_4 sentAcks:count 0
attr source org_car2x_veins_modules_mac_sigSentAck
scalar RSUExampleScenario3.node[1345].nic.mac1609_4 sentPackets:count 0
attr source org_car2x_veins_modules_mac_sigSentPacket
scalar RSUExampleScenario3.node[1345].nic.mac1609_4 collisions:count 0
attr source org_car2x_veins_modules_mac_sigCollision
scalar RSUExampleScenario3.node[1345].nic.mac1609_4 channelBusy:timeavg -nan
attr source org_car2x_veins_modules_mac_sigChannelBusy
scalar RSUExampleScenario3.node[1345].veinsmobility startTime 3600
scalar RSUExampleScenario3.node[1345].veinsmobility totalTime 0
scalar RSUExampleScenario3.node[1345].veinsmobility stopTime 3600
scalar RSUExampleScenario3.node[1345].veinsmobility totalDistance 0
scalar RSUExampleScenario3.node[1345].veinsmobility totalCO2Emission 0

