version 2
run General-0-20250327-11:00:28-306679
attr configname General
attr datetime 20250327-11:00:28
attr experiment General
attr inifile omnetpp.ini
attr iterationvars ""
attr iterationvarsf ""
attr measurement ""
attr network vasp.scenario.DefconScenario
attr processid 306679
attr repetition 0
attr replication #0
attr resultdir results
attr runnumber 0
attr seedset 0
param *.playgroundSizeX 5000m
param *.playgroundSizeY 5000m
param *.playgroundSizeZ 50m
param *.annotations.draw true
param *.manager.updateInterval 1s
param *.manager.host "\"localhost\""
param *.manager.port 9999
param *.manager.autoShutdown true
param *.manager.launchConfig "xmldoc(\"boston.launchd.xml\")"
param *.rsu[0].mobility.x 1200
param *.rsu[0].mobility.y 200
param *.rsu[0].mobility.z 3
param *.rsu[*].applType "\"TraCIDemoRSU11p\""
param *.rsu[*].appl.headerLength "80 bit"
param *.rsu[*].appl.sendBeacons true
param *.rsu[*].appl.dataOnSch false
param *.rsu[*].appl.beaconInterval 1s
param *.rsu[*].appl.beaconUserPriority 7
param *.rsu[*].appl.dataUserPriority 5
param *.rsu[*].nic.phy80211p.antennaOffsetZ "0 m"
param *.connectionManager.sendDirect true
param *.connectionManager.maxInterfDist 2600m
param *.connectionManager.drawMaxIntfDist false
param *.**.nic.mac1609_4.useServiceChannel false
param *.**.nic.mac1609_4.txPower 20mW
param *.**.nic.mac1609_4.bitrate 6Mbps
param *.**.nic.phy80211p.minPowerLevel -110dBm
param *.**.nic.phy80211p.useNoiseFloor true
param *.**.nic.phy80211p.noiseFloor -98dBm
param *.**.nic.phy80211p.decider "xmldoc(\"../../../examples/veins/config.xml\")"
param *.**.nic.phy80211p.analogueModels "xmldoc(\"../../../examples/veins/config.xml\")"
param *.**.nic.phy80211p.usePropagationDelay true
param *.**.nic.phy80211p.antenna "xmldoc(\"../../../examples/veins/antenna.xml\", \"/root/Antenna[@id='monopole']\")"
param *.node[*].nic.phy80211p.antennaOffsetY "0 m"
param *.node[*].nic.phy80211p.antennaOffsetZ "1.895 m"
param *.node[*].applType "\"CarApp\""
param *.node[*].appl.headerLength "80 bit"
param *.node[*].appl.sendBeacons true
param *.node[*].appl.dataOnSch false
param *.node[*].appl.beaconInterval 0.1s
param *.node[*].appl.runID "\"General-0-20250327-11:00:28-306679\""
param *.node[*].veinsmobility.x 0
param *.node[*].veinsmobility.y 0
param *.node[*].veinsmobility.z 0
param *.node[*].veinsmobility.setHostSpeed false
param *.node[*0].veinsmobility.accidentCount 1
param *.node[*0].veinsmobility.accidentStart 73s
param *.node[*0].veinsmobility.accidentDuration 50s
param **.traceManager.filepath "\"results/rxtrace-General-0-20250327-11:00:28-306679.csv\""
param *.node[*].appl.attackPolicy 1
param *.node[*].appl.sporadicInsertionRate 0.6
param *.node[*].appl.maliciousProbability 0.5
param *.node[*].appl.attackType 10
param *.node[*].appl.nDosMessages 4
param *.node[*].appl.speedAttackOffset 10mps

vector 0 DefconScenario.node[0].veinsmobility posx ETV
vector 1 DefconScenario.node[0].veinsmobility posy ETV
vector 2 DefconScenario.node[0].veinsmobility speed ETV
vector 3 DefconScenario.node[1].veinsmobility posx ETV
vector 4 DefconScenario.node[1].veinsmobility posy ETV
vector 5 DefconScenario.node[0].veinsmobility acceleration ETV
vector 6 DefconScenario.node[0].veinsmobility co2emission ETV
vector 7 DefconScenario.node[1].veinsmobility speed ETV
vector 8 DefconScenario.node[1].veinsmobility acceleration ETV
vector 9 DefconScenario.node[1].veinsmobility co2emission ETV
6	9311	902	4.3051415950089
6	9883	903	5.1812922246763
6	10398	904	6.318824863351
6	10932	905	7.5051929014414
6	11504	906	8.8495434494764
6	12000	907	10.292999013138
6	12591	908	11.561644598158
6	13087	909	12.902607757933
6	13602	910	12.981141981127
6	14193	911	15.36041635314
6	14727	912	16.079274000824
6	15223	913	18.156329223046
6	15757	914	18.465947333739
6	16234	915	5.2058666782103
6	16768	916	4.8529846288557
6	17264	917	5.2086509474158
6	17760	918	4.7459395120994
6	18275	919	4.5700923268047
6	18809	920	5.7176983144666
6	19362	921	4.8963378857166
6	19934	922	5.0660461570325
6	20487	923	5.2218704905068
6	20964	924	4.4692892883418
6	21479	925	5.0247583052306
6	21975	926	5.3321697246706
6	22509	927	4.8110087990691
6	23043	928	5.5125803154864
6	23615	929	4.947092041233
6	24131	930	4.5633141357844
6	24693	931	5.5652149836874
6	25197	932	4.3758476822579
6	25723	933	5.2646593942768
6	26196	934	4.5083149788399
6	26789	935	5.2599690581871
6	27349	936	5.5864473651593
6	27968	937	4.6439078117849
6	28490	938	4.7177508712302
6	29052	939	5.6599969052788
6	29574	940	4.2879927768916
6	30136	941	5.5416863841181
6	30718	942	4.644703260581
6	31340	943	5.367102291788
6	31962	944	4.6073317686894
6	32544	945	5.2179546299676
6	33106	946	4.8393362078019
6	33708	947	5.5879690067028
6	34250	948	4.3509044541469
6	34812	949	5.5084340828842
6	35354	950	4.4292129195467
6	35876	951	5.5112408536812
6	36398	952	5.3051803393833
6	37000	953	4.5645468646932
6	37542	954	5.1882509066649
6	38084	955	5.3823101829808
6	38646	956	4.1190517145652
6	39168	957	5.0804651305369
6	39730	958	4.8933747531298
6	40312	959	5.2404592989486
6	40913	960	4.8830564670919
6	41433	961	5.0700286930705
6	42014	962	5.1231462616819
6	42569	963	4.9613774888414
6	43140	964	4.730664855929
6	43651	965	5.2018603915984
6	44221	966	5.3488818147103
6	44790	967	5.0831621065171
6	45358	968	5.0031982809952
6	45933	969	4.5762378683103
6	46429	970	4.9183743391653
6	46944	971	5.6084906624996
6	47497	972	4.9231328171314
6	47975	973	0.973
5	9311	902	1.9491067656805
5	9883	903	1.8838952855184
5	10398	904	1.934917997662
5	10932	905	1.9719010580983
5	11504	906	2.0280046309531
5	12000	907	2.0791135100531
5	12591	908	2.0708301827405
5	13087	909	2.0703435182991
5	13602	910	1.851203502398
5	14193	911	2.036284935493
5	14727	912	1.9313239196804
5	15223	913	2.0243648998928
5	15757	914	1.8680289803861
5	16234	915	0.0254200899438
5	16768	916	-0.022633952738254
5	17264	917	0.025678729894572
5	17760	918	-0.037046344252303
5	18275	919	-0.059167244073468
5	18809	920	0.096303305928593
5	19362	921	-0.016970023573375
5	19934	922	0.0063284252746953
5	20487	923	0.026829255362973
5	20964	924	-0.07465636126464
5	21479	925	0.0024625248182559
5	21975	926	0.043350805637893
5	22509	927	-0.027871015858839
5	23043	928	0.066709108909127
5	23615	929	-0.011224494073538
5	24131	930	-0.062029326434715
5	24693	931	0.073974182598761
5	25197	932	-0.087562947741244
5	25723	933	0.034548069676383
5	26196	934	-0.067856706555467
5	26789	935	0.035271894605831
5	27349	936	0.0772808199469
5	27968	937	-0.051390742403456
5	28490	938	-0.039564018698876
5	29052	939	0.087625754957553
5	29574	940	-0.098910615376663
5	30136	941	0.072373015342748
5	30718	942	-0.050153917495628
5	31340	943	0.048223412784282
5	31962	944	-0.055081101721154
5	32544	945	0.028631462475751
5	33106	946	-0.023042686898261
5	33708	947	0.077650788840838
5	34250	948	-0.090466350349597
5	34812	949	0.067611462366767
5	35354	950	-0.079132059891705
5	35876	951	0.068463517276104
5	36398	952	0.038234886035788
5	37000	953	-0.062040679228957
5	37542	954	0.023629446139093
5	38084	955	0.04849826214835
5	38646	956	-0.12209538233932
5	39168	957	0.011244776619133
5	39730	958	-0.014208216469271
5	40312	959	0.032723707549742
5	40913	960	-0.01630868671462
5	41433	961	0.0093165164301148
5	42014	962	0.016036825708582
5	42569	963	-0.0061953303217912
5	43140	964	-0.036806710930541
5	43651	965	0.02762272852706
5	44221	966	0.046103651511949
5	44790	967	0.0088421347667449
5	45358	968	-0.0021688113571123
5	45933	969	-0.059132420092357
5	46429	970	-0.011091866700443
5	46944	971	0.08137028396828
5	47497	972	-0.013200135491786
5	47975	973	-4.5
2	9156	901	4.1783900467449
2	9311	902	6.1274968124253
2	9883	903	8.0113920979437
2	10398	904	9.9463100956057
2	10932	905	11.918211153704
2	11504	906	13.946215784657
2	12000	907	16.02532929471
2	12591	908	18.096159477451
2	13087	909	20.16650299575
2	13602	910	22.017706498148
2	14193	911	24.053991433641
2	14727	912	25.985315353321
2	15223	913	28.009680253214
2	15757	914	29.8777092336
2	16234	915	29.903129323544
2	16768	916	29.880495370806
2	17264	917	29.9061741007
2	17760	918	29.869127756448
2	18275	919	29.809960512375
2	18809	920	29.906263818303
2	19362	921	29.88929379473
2	19934	922	29.895622220004
2	20487	923	29.922451475367
2	20964	924	29.847795114103
2	21479	925	29.850257638921
2	21975	926	29.893608444559
2	22509	927	29.8657374287
2	23043	928	29.932446537609
2	23615	929	29.921222043536
2	24131	930	29.859192717101
2	24693	931	29.9331668997
2	25197	932	29.845603951958
2	25723	933	29.880152021635
2	26196	934	29.812295315079
2	26789	935	29.847567209685
2	27349	936	29.924848029632
2	27968	937	29.873457287229
2	28490	938	29.83389326853
2	29052	939	29.921519023487
2	29574	940	29.822608408111
2	30136	941	29.894981423453
2	30718	942	29.844827505958
2	31340	943	29.893050918742
2	31962	944	29.837969817021
2	32544	945	29.866601279497
2	33106	946	29.843558592598
2	33708	947	29.921209381439
2	34250	948	29.83074303109
2	34812	949	29.898354493456
2	35354	950	29.819222433565
2	35876	951	29.887685950841
2	36398	952	29.925920836877
2	37000	953	29.863880157648
2	37542	954	29.887509603787
2	38084	955	29.936007865935
2	38646	956	29.813912483596
2	39168	957	29.825157260215
2	39730	958	29.810949043746
2	40312	959	29.843672751295
2	40913	960	29.827364064581
2	41433	961	29.836680581011
2	42014	962	29.852717406719
2	42569	963	29.846522076398
2	43140	964	29.809715365467
2	43651	965	29.837338093994
2	44221	966	29.883441745506
2	44790	967	29.892283880273
2	45358	968	29.890115068916
2	45933	969	29.830982648823
2	46429	970	29.819890782123
2	46944	971	29.901261066091
2	47497	972	29.888060930599
2	47975	973	25.388060930599
1	9001	900	20.2
1	9156	901	20.2
1	9311	902	20.2
1	9883	903	20.2
1	10398	904	20.2
1	10932	905	20.2
1	11504	906	20.2
1	12000	907	20.2
1	12591	908	20.2
1	13087	909	20.2
1	13602	910	20.2
1	14193	911	20.2
1	14727	912	20.2
1	15223	913	20.2
1	15757	914	20.2
1	16234	915	20.2
1	16768	916	20.2
1	17264	917	20.2
1	17760	918	20.2
1	18275	919	20.2
1	18809	920	20.2
1	19362	921	20.2
1	19934	922	20.2
1	20487	923	20.2
1	20964	924	20.2
1	21479	925	20.2
1	21975	926	20.2
1	22509	927	20.2
1	23043	928	20.2
1	23615	929	20.2
1	24131	930	20.2
1	24693	931	20.2
1	25197	932	20.2
1	25723	933	20.2
1	26196	934	20.2
1	26789	935	20.2
1	27349	936	20.2
1	27968	937	20.2
1	28490	938	20.2
1	29052	939	20.2
1	29574	940	20.2
1	30136	941	20.2
1	30718	942	20.2
1	31340	943	20.2
1	31962	944	20.2
1	32544	945	20.2
1	33106	946	20.2
1	33708	947	20.2
1	34250	948	20.2
1	34812	949	20.2
1	35354	950	20.2
1	35876	951	20.2
1	36398	952	20.2
1	37000	953	20.2
1	37542	954	20.2
1	38084	955	20.2
1	38646	956	20.2
1	39168	957	20.2
1	39730	958	20.2
1	40312	959	20.2
1	40913	960	20.2
1	41433	961	20.2
1	42014	962	20.2
1	42569	963	20.2
1	43140	964	20.2
1	43651	965	20.2
1	44221	966	20.2
1	44790	967	20.2
1	45358	968	20.2
1	45933	969	20.2
1	46429	970	20.2
1	46944	971	20.2
1	47497	972	20.2
1	47975	973	20.2
0	9001	900	31.162333637945
0	9156	901	34.405667229181
0	9311	902	39.619291099945
0	9883	903	46.734044224515
0	10398	904	55.814611344047
0	10932	905	66.8419116074
0	11504	906	79.864711865843
0	12000	907	94.930850787004
0	12591	908	112.09357262886
0	13087	909	131.3515549825
0	13602	910	152.57232811228
0	14193	911	175.68084563685
0	14727	912	200.85355917467
0	15223	913	227.93641706026
0	15757	914	257.02340244524
0	16234	915	286.89838089578
0	16768	916	316.77873781566
0	17264	917	346.63583682717
0	17760	918	376.51113140654
0	18275	919	406.38035445217
0	18809	920	436.26558445782
0	19362	921	466.17302669781
0	19934	922	496.04713083595
0	20487	923	525.83954170565
0	20964	924	555.73682178738
0	21479	925	585.60742094813
0	21975	926	615.49243912531
0	22509	927	645.36949532582
0	23043	928	675.25078169252
0	23615	929	705.12581644863
0	24131	930	735.01572806538
0	24693	931	764.87834384453
0	25197	932	794.7431431129
0	25723	933	824.61738326911
0	26196	934	854.48009849918
0	26789	935	884.33278752858
0	27349	936	914.21232468273
0	27968	937	944.0826619019
0	28490	938	973.95253955934
0	29052	939	1003.82532319
0	29574	940	1033.7100288278
0	30136	941	1063.5837134165
0	30718	942	1093.4562574364
0	31340	943	1123.3323167941
0	31962	944	1153.2198397811
0	32544	945	1183.0833489877
0	33106	946	1212.9542314281
0	33708	947	1242.8377825211
0	34250	948	1272.7282667927
0	34812	949	1302.6149483717
0	35354	950	1332.4789106698
0	35876	951	1362.3512859699
0	36398	952	1392.2346069075
0	37000	953	1422.1248103714
0	37542	954	1452.0071436836
0	38084	955	1481.8779825589
0	38646	956	1511.7693091503
0	39168	957	1541.5602404167
0	39730	958	1571.4315803506
0	40312	959	1601.2958116427
0	40913	960	1631.1833674767
0	41433	961	1661.0487192494
0	42014	962	1690.9043722211
0	42569	963	1720.7864068731
0	43140	964	1750.6691563747
0	43651	965	1780.550901732
0	44221	966	1810.412621614
0	44790	967	1840.2884778462
0	45358	968	1870.1583738163
0	45933	969	1900.0570190491
0	46429	970	1929.9179356127
0	46944	971	1959.7960076363
0	47497	972	1989.6683552213
0	47975	973	2017.0814161518
9	10398	904	3.7958174285954
9	10932	905	4.3877935474603
9	11504	906	5.7650048211934
9	12000	907	6.1627097405917
9	12591	908	7.5763050376568
9	13087	909	9.5275672378739
9	13602	910	9.3864875884679
9	14193	911	11.577709272102
9	14727	912	12.472342327769
9	15223	913	13.918381620659
9	15757	914	15.667097119526
9	16234	915	15.552947793013
9	16768	916	17.5989847874
9	17264	917	4.2747240245627
9	17760	918	4.2955832910209
9	18275	919	4.7355386451575
9	18809	920	4.2133879410093
9	19362	921	4.6553021911066
9	19934	922	4.8111594506197
9	20487	923	3.8747601709283
9	20964	924	4.7146860893087
9	21479	925	4.6302940646771
9	21975	926	4.4948522235639
9	22509	927	4.6502869916499
9	23043	928	4.6734704750437
9	23615	929	3.884423291265
9	24131	930	4.6311888115493
9	24693	931	4.3278700825194
9	25197	932	5.1764273745353
9	25723	933	3.8180960563559
9	26196	934	4.4134941109354
9	26789	935	4.8224833164009
9	27349	936	4.2535065227542
9	27968	937	4.7873698448072
9	28490	938	4.5382330149525
9	29052	939	4.5260340549774
9	29574	940	4.7760502609923
9	30136	941	4.4239214336818
9	30718	942	4.6468820048777
9	31340	943	4.2759042336337
9	31962	944	4.6816469267346
9	32544	945	4.2174859952229
9	33106	946	4.821719273112
9	33708	947	3.8078541546119
9	34250	948	5.1383531442172
9	34812	949	3.841390741927
9	35354	950	4.510547642634
9	35876	951	4.9815544067071
9	36398	952	4.7438731047716
9	37000	953	3.966448191451
9	37542	954	4.2650598136619
9	38084	955	5.106764634056
9	38646	956	4.3011821029811
9	39168	957	4.074437815556
9	39730	958	4.7402354510368
9	40312	959	5.1117325718161
9	40913	960	4.4633773997113
9	41433	961	4.3103346199198
9	42014	962	4.0724161148966
9	42569	963	4.3649385406327
9	43140	964	4.8433118913726
9	43651	965	4.7047315549586
9	44221	966	4.6327935330656
9	44790	967	3.9419329693846
9	45358	968	4.9753881087525
9	45933	969	4.0634127645227
9	46429	970	5.0665096779272
9	46944	971	3.8723266354975
9	47497	972	4.5790277516197
9	47975	973	4.9088229717797
9	48547	974	3.8920801099562
9	48702	975	4.7003469009796
9	48857	976	4.9399059897608
9	49012	977	4.0371559185537
9	49167	978	4.9014825342005
9	49322	979	4.7372508365716
8	10398	904	2.0575221588975
8	10932	905	1.8058640835737
8	11504	906	1.9883036303776
8	12000	907	1.760178912573
8	12591	908	1.9085715479054
8	13087	909	2.1269893481047
8	13602	910	1.8035329894233
8	14193	911	2.0381071836432
8	14727	912	1.9629918358894
8	15223	913	1.9921408532816
8	15757	914	2.0525340162241
8	16234	915	1.8260895103938
8	16768	916	1.9307006589598
8	17264	917	-0.034654789138585
8	17760	918	-0.030407566812354
8	18275	919	0.03332743786741
8	18809	920	-0.042230657360051
8	19362	921	0.022273128679956
8	19934	922	0.043535177733283
8	20487	923	-0.091420053532346
8	20964	924	0.031709716990587
8	21479	925	0.018482652225067
8	21975	926	-0.0014854711573555
8	22509	927	0.020668404330497
8	23043	928	0.023161248618273
8	23615	929	-0.090077575352044
8	24131	930	0.019736895388924
8	24693	931	-0.024224606410133
8	25197	932	0.097299624737353
8	25723	933	-0.099656495889651
8	26196	934	-0.011019560422284
8	26789	935	0.047637751786972
8	27349	936	-0.035204641537277
8	27968	937	0.042158124586567
8	28490	938	0.0051040108758045
8	29052	939	0.0031744425953342
8	29574	940	0.038571226019414
8	30136	941	-0.012924936350903
8	30718	942	0.019243100869936
8	31340	943	-0.034221075719689
8	31962	944	0.024757264808287
8	32544	945	-0.042195720782036
8	33106	946	0.045316309400366
8	33708	947	-0.10080189302331
8	34250	948	0.092431974185168
8	34812	949	-0.095713738061022
8	35354	950	0.0033380501577618
8	35876	951	0.070199420130812
8	36398	952	0.0336926965788
8	37000	953	-0.078238073564133
8	37542	954	-0.032772529686337
8	38084	955	0.088244571019896
8	38646	956	-0.029664058461787
8	39168	957	-0.060942866271361
8	39730	958	0.03628837149823
8	40312	959	0.087563329511323
8	40913	960	-0.0078280001925286
8	41433	961	-0.029299501725472
8	42014	962	-0.062155189095066
8	42569	963	-0.018124313168229
8	43140	964	0.050691137672402
8	43651	965	0.029014094041194
8	44221	966	0.017673638630658
8	44790	967	-0.081404524776151
8	45358	968	0.068804488170425
8	45933	969	-0.063602025017609
8	46429	970	0.081511433655397
8	46944	971	-0.091541498792356
8	47497	972	0.012659962642935
8	47975	973	0.059047883157618
8	48547	974	-0.088024300429968
8	48702	975	0.030562446662223
8	48857	976	0.063394147865473
8	49012	977	-0.067495121560057
8	49167	978	0.05810647116741
8	49322	979	0.03251258215867
7	9883	903	2.8585373363743
7	10398	904	4.9160594952718
7	10932	905	6.7219235788455
7	11504	906	8.7102272092231
7	12000	907	10.470406121796
7	12591	908	12.378977669702
7	13087	909	14.505967017806
7	13602	910	16.30950000723
7	14193	911	18.347607190873
7	14727	912	20.310599026762
7	15223	913	22.302739880044
7	15757	914	24.355273896268
7	16234	915	26.181363406662
7	16768	916	28.112064065621
7	17264	917	28.077409276483
7	17760	918	28.047001709671
7	18275	919	28.080329147538
7	18809	920	28.038098490178
7	19362	921	28.060371618858
7	19934	922	28.103906796591
7	20487	923	28.012486743059
7	20964	924	28.044196460049
7	21479	925	28.062679112274
7	21975	926	28.061193641117
7	22509	927	28.081862045448
7	23043	928	28.105023294066
7	23615	929	28.014945718714
7	24131	930	28.034682614103
7	24693	931	28.010458007693
7	25197	932	28.10775763243
7	25723	933	28.00810113654
7	26196	934	27.997081576118
7	26789	935	28.044719327905
7	27349	936	28.009514686368
7	27968	937	28.051672810954
7	28490	938	28.05677682183
7	29052	939	28.059951264425
7	29574	940	28.098522490445
7	30136	941	28.085597554094
7	30718	942	28.104840654964
7	31340	943	28.070619579244
7	31962	944	28.095376844052
7	32544	945	28.05318112327
7	33106	946	28.098497432671
7	33708	947	27.997695539647
7	34250	948	28.090127513833
7	34812	949	27.994413775772
7	35354	950	27.997751825929
7	35876	951	28.06795124606
7	36398	952	28.101643942639
7	37000	953	28.023405869075
7	37542	954	27.990633339389
7	38084	955	28.078877910408
7	38646	956	28.049213851947
7	39168	957	27.988270985675
7	39730	958	28.024559357173
7	40312	959	28.112122686685
7	40913	960	28.104294686492
7	41433	961	28.074995184767
7	42014	962	28.012839995672
7	42569	963	27.994715682504
7	43140	964	28.045406820176
7	43651	965	28.074420914217
7	44221	966	28.092094552848
7	44790	967	28.010690028072
7	45358	968	28.079494516242
7	45933	969	28.015892491224
7	46429	970	28.09740392488
7	46944	971	28.005862426087
7	47497	972	28.01852238873
7	47975	973	28.077570271888
7	48547	974	27.989545971458
7	48702	975	28.02010841812
7	48857	976	28.083502565986
7	49012	977	28.016007444426
7	49167	978	28.074113915593
7	49322	979	28.106626497752
4	9311	902	20.2
4	9883	903	20.2
4	10398	904	20.2
4	10932	905	20.2
4	11504	906	20.2
4	12000	907	20.2
4	12591	908	20.2
4	13087	909	20.2
4	13602	910	20.2
4	14193	911	20.2
4	14727	912	20.2
4	15223	913	20.2
4	15757	914	20.2
4	16234	915	20.2
4	16768	916	20.2
4	17264	917	20.2
4	17760	918	20.2
4	18275	919	20.2
4	18809	920	20.2
4	19362	921	20.2
4	19934	922	20.2
4	20487	923	20.2
4	20964	924	20.2
4	21479	925	20.2
4	21975	926	20.2
4	22509	927	20.2
4	23043	928	20.2
4	23615	929	20.2
4	24131	930	20.2
4	24693	931	20.2
4	25197	932	20.2
4	25723	933	20.2
4	26196	934	20.2
4	26789	935	20.2
4	27349	936	20.2
4	27968	937	20.2
4	28490	938	20.2
4	29052	939	20.2
4	29574	940	20.2
4	30136	941	20.2
4	30718	942	20.2
4	31340	943	20.2
4	31962	944	20.2
4	32544	945	20.2
4	33106	946	20.2
4	33708	947	20.2
4	34250	948	20.2
4	34812	949	20.2
4	35354	950	20.2
4	35876	951	20.2
4	36398	952	20.2
4	37000	953	20.2
4	37542	954	20.2
4	38084	955	20.2
4	38646	956	20.2
4	39168	957	20.2
4	39730	958	20.2
4	40312	959	20.2
4	40913	960	20.2
4	41433	961	20.2
4	42014	962	20.2
4	42569	963	20.2
4	43140	964	20.2
4	43651	965	20.2
4	44221	966	20.2
4	44790	967	20.2
4	45358	968	20.2
4	45933	969	20.2
4	46429	970	20.2
4	46944	971	20.2
4	47497	972	20.2
4	47975	973	20.2
4	48547	974	20.2
4	48702	975	20.2
4	48857	976	20.2
4	49012	977	20.2
4	49167	978	20.2
4	49322	979	20.2
3	9311	902	30.253137847226
3	9883	903	32.195075445227
3	10398	904	36.208354073425
3	10932	905	42.098305462836
3	11504	906	49.881153681992
3	12000	907	59.579302164598
3	12591	908	71.129595403775
3	13087	909	84.676499066224
3	13602	910	100.18074442873
3	14193	911	117.53084648154
3	14727	912	136.9605636939
3	15223	913	158.3802504664
3	15757	914	181.78169808963
3	16234	915	207.12299142696
3	16768	916	234.39128778465
3	17264	917	262.44278350301
3	17760	918	290.50162573571
3	18275	919	318.56248350361
3	18809	920	346.59254965879
3	19362	921	374.65167273434
3	19934	922	402.69183932668
3	20487	923	430.73944933095
3	20964	924	458.79615723208
3	21479	925	486.86656901528
3	21975	926	514.93019716275
3	22509	927	542.90591805005
3	23043	928	570.96724854974
3	23615	929	599.00486666718
3	24131	930	627.06856145058
3	24693	931	655.09241393148
3	25197	932	683.12864586963
3	25723	933	711.18934508047
3	26196	934	739.24870366322
3	26789	935	767.31050831327
3	27349	936	795.3515288315
3	27968	937	823.42158525049
3	28490	938	851.45843248761
3	29052	939	879.50662955178
3	29574	940	907.56689001193
3	30136	941	935.62083043103
3	30718	942	963.66842334489
3	31340	943	991.71525274702
3	31962	944	1019.7673937454
3	32544	945	1047.8105862176
3	33106	946	1075.8698133516
3	33708	947	1103.9274995988
3	34250	948	1131.9842886596
3	34812	949	1160.0363257189
3	35354	950	1188.0904148305
3	35876	951	1216.1452110756
3	36398	952	1244.217619108
3	37000	953	1272.2497188871
3	37542	954	1300.3101759536
3	38084	955	1328.3900829507
3	38646	956	1356.4304210082
3	39168	957	1384.4626146743
3	39730	958	1412.5058327974
3	40312	959	1440.5632477834
3	40913	960	1468.6335098441
3	41433	961	1496.7145510006
3	42014	962	1524.7741899748
3	42569	963	1552.7032828847
3	43140	964	1580.7379130073
3	43651	965	1608.8179253832
3	44221	966	1636.8718280456
3	44790	967	1664.9248222217
3	45358	968	1692.9663167341
3	45933	969	1721.0114835953
3	46429	970	1749.0591260559
3	46944	971	1777.1087833686
3	47497	972	1805.1486508877
3	47975	973	1833.2155882433
3	48547	974	1861.2695218082
3	48702	975	1889.2937728912
3	48857	976	1917.3306863247
3	49012	977	1945.3873575206
3	49167	978	1973.4371681998
3	49322	979	2001.4659435511

