version 2
run General-0-20250327-10:46:22-243192
attr configname General
attr datetime 20250327-10:46:22
attr experiment General
attr inifile omnetpp.ini
attr iterationvars ""
attr iterationvarsf ""
attr measurement ""
attr network vasp.scenario.DefconScenario
attr processid 243192
attr repetition 0
attr replication #0
attr resultdir results
attr runnumber 0
attr seedset 0
param *.playgroundSizeX 5000m
param *.playgroundSizeY 5000m
param *.playgroundSizeZ 50m
param *.annotations.draw true
param *.manager.updateInterval 1s
param *.manager.host "\"localhost\""
param *.manager.port 9999
param *.manager.autoShutdown true
param *.manager.launchConfig "xmldoc(\"boston.launchd.xml\")"
param *.rsu[0].mobility.x 1200
param *.rsu[0].mobility.y 200
param *.rsu[0].mobility.z 3
param *.rsu[*].applType "\"TraCIDemoRSU11p\""
param *.rsu[*].appl.headerLength "80 bit"
param *.rsu[*].appl.sendBeacons true
param *.rsu[*].appl.dataOnSch false
param *.rsu[*].appl.beaconInterval 1s
param *.rsu[*].appl.beaconUserPriority 7
param *.rsu[*].appl.dataUserPriority 5
param *.rsu[*].nic.phy80211p.antennaOffsetZ "0 m"
param *.connectionManager.sendDirect true
param *.connectionManager.maxInterfDist 2600m
param *.connectionManager.drawMaxIntfDist false
param *.**.nic.mac1609_4.useServiceChannel false
param *.**.nic.mac1609_4.txPower 20mW
param *.**.nic.mac1609_4.bitrate 6Mbps
param *.**.nic.phy80211p.minPowerLevel -110dBm
param *.**.nic.phy80211p.useNoiseFloor true
param *.**.nic.phy80211p.noiseFloor -98dBm
param *.**.nic.phy80211p.decider "xmldoc(\"../../../examples/veins/config.xml\")"
param *.**.nic.phy80211p.analogueModels "xmldoc(\"../../../examples/veins/config.xml\")"
param *.**.nic.phy80211p.usePropagationDelay true
param *.**.nic.phy80211p.antenna "xmldoc(\"../../../examples/veins/antenna.xml\", \"/root/Antenna[@id='monopole']\")"
param *.node[*].nic.phy80211p.antennaOffsetY "0 m"
param *.node[*].nic.phy80211p.antennaOffsetZ "1.895 m"
param *.node[*].applType "\"CarApp\""
param *.node[*].appl.headerLength "80 bit"
param *.node[*].appl.sendBeacons true
param *.node[*].appl.dataOnSch false
param *.node[*].appl.beaconInterval 0.1s
param *.node[*].appl.runID "\"General-0-20250327-10:46:22-243192\""
param *.node[*].veinsmobility.x 0
param *.node[*].veinsmobility.y 0
param *.node[*].veinsmobility.z 0
param *.node[*].veinsmobility.setHostSpeed false
param *.node[*0].veinsmobility.accidentCount 1
param *.node[*0].veinsmobility.accidentStart 73s
param *.node[*0].veinsmobility.accidentDuration 50s
param **.traceManager.filepath "\"results/rxtrace-General-0-20250327-10:46:22-243192.csv\""
param *.node[*].appl.attackPolicy 1
param *.node[*].appl.sporadicInsertionRate 0.6
param *.node[*].appl.maliciousProbability 0.5
param *.node[*].appl.attackType 55
param *.node[*].appl.nDosMessages 4
param *.node[*].appl.speedAttackOffset 10mps

vector 0 DefconScenario.node[0].veinsmobility posx ETV
vector 1 DefconScenario.node[0].veinsmobility posy ETV
vector 2 DefconScenario.node[0].veinsmobility speed ETV
vector 3 DefconScenario.node[1].veinsmobility posx ETV
vector 4 DefconScenario.node[1].veinsmobility posy ETV
vector 5 DefconScenario.node[0].veinsmobility acceleration ETV
vector 6 DefconScenario.node[0].veinsmobility co2emission ETV
vector 7 DefconScenario.node[1].veinsmobility speed ETV
vector 8 DefconScenario.node[1].veinsmobility acceleration ETV
vector 9 DefconScenario.node[1].veinsmobility co2emission ETV
6	9311	902	4.3051415950089
6	9731	903	5.1812922246763
6	10151	904	6.318824863351
6	10571	905	7.5051929014414
6	10991	906	8.8495434494764
6	11411	907	10.292999013138
6	11831	908	11.561644598158
6	12251	909	12.902607757933
6	12671	910	12.981141981127
6	13091	911	15.36041635314
6	13511	912	16.079274000824
6	13931	913	18.156329223046
6	14351	914	18.465947333739
6	14771	915	5.2058666782103
6	15191	916	4.8529846288557
6	15611	917	5.2086509474158
6	16031	918	4.7459395120994
6	16451	919	4.5700923268047
6	16871	920	5.7176983144666
6	17291	921	4.8963378857166
6	17711	922	5.0660461570325
6	18131	923	5.2218704905068
6	18551	924	4.4692892883418
6	18971	925	5.0247583052306
6	19391	926	5.3321697246706
6	19811	927	4.8110087990691
6	20231	928	5.5125803154864
6	20651	929	4.947092041233
6	21072	930	4.5633141357844
6	21502	931	5.5652149836874
6	21931	932	4.3758476822579
6	22361	933	5.2646593942768
6	22792	934	4.5083149788399
6	23231	935	5.2599690581871
6	23673	936	5.5864473651593
6	24114	937	4.6439078117849
6	24556	938	4.7177508712302
6	24998	939	5.6599969052788
6	25440	940	4.2879927768916
6	25882	941	5.5416863841181
6	26324	942	4.644703260581
6	26766	943	5.367102291788
6	27208	944	4.6073317686894
6	27650	945	5.2179546299676
6	28092	946	4.8393362078019
6	28534	947	5.5879690067028
6	28976	948	4.3509044541469
6	29418	949	5.5084340828842
6	29860	950	4.4292129195467
6	30302	951	5.5112408536812
6	30744	952	5.3051803393833
6	31186	953	4.5645468646932
6	31628	954	5.1882509066649
6	32070	955	5.3823101829808
6	32512	956	4.1190517145652
6	32954	957	5.0804651305369
6	33396	958	4.8933747531298
6	33838	959	5.2404592989486
6	34280	960	4.8830564670919
6	34722	961	5.0700286930705
6	35163	962	5.1231462616819
6	35598	963	4.9613774888414
6	36029	964	4.730664855929
6	36460	965	5.2018603915984
6	36891	966	5.3488818147103
6	37322	967	5.0831621065171
6	37751	968	5.0031982809952
6	38174	969	4.5762378683103
6	38594	970	4.9183743391653
6	39014	971	5.6084906624996
6	39434	972	4.9231328171314
6	39855	973	0.973
5	9311	902	1.9491067656805
5	9731	903	1.8838952855184
5	10151	904	1.934917997662
5	10571	905	1.9719010580983
5	10991	906	2.0280046309531
5	11411	907	2.0791135100531
5	11831	908	2.0708301827405
5	12251	909	2.0703435182991
5	12671	910	1.851203502398
5	13091	911	2.036284935493
5	13511	912	1.9313239196804
5	13931	913	2.0243648998928
5	14351	914	1.8680289803861
5	14771	915	0.0254200899438
5	15191	916	-0.022633952738254
5	15611	917	0.025678729894572
5	16031	918	-0.037046344252303
5	16451	919	-0.059167244073468
5	16871	920	0.096303305928593
5	17291	921	-0.016970023573375
5	17711	922	0.0063284252746953
5	18131	923	0.026829255362973
5	18551	924	-0.07465636126464
5	18971	925	0.0024625248182559
5	19391	926	0.043350805637893
5	19811	927	-0.027871015858839
5	20231	928	0.066709108909127
5	20651	929	-0.011224494073538
5	21072	930	-0.062029326434715
5	21502	931	0.073974182598761
5	21931	932	-0.087562947741244
5	22361	933	0.034548069676383
5	22792	934	-0.067856706555467
5	23231	935	0.035271894605831
5	23673	936	0.0772808199469
5	24114	937	-0.051390742403456
5	24556	938	-0.039564018698876
5	24998	939	0.087625754957553
5	25440	940	-0.098910615376663
5	25882	941	0.072373015342748
5	26324	942	-0.050153917495628
5	26766	943	0.048223412784282
5	27208	944	-0.055081101721154
5	27650	945	0.028631462475751
5	28092	946	-0.023042686898261
5	28534	947	0.077650788840838
5	28976	948	-0.090466350349597
5	29418	949	0.067611462366767
5	29860	950	-0.079132059891705
5	30302	951	0.068463517276104
5	30744	952	0.038234886035788
5	31186	953	-0.062040679228957
5	31628	954	0.023629446139093
5	32070	955	0.04849826214835
5	32512	956	-0.12209538233932
5	32954	957	0.011244776619133
5	33396	958	-0.014208216469271
5	33838	959	0.032723707549742
5	34280	960	-0.01630868671462
5	34722	961	0.0093165164301148
5	35163	962	0.016036825708582
5	35598	963	-0.0061953303217912
5	36029	964	-0.036806710930541
5	36460	965	0.02762272852706
5	36891	966	0.046103651511949
5	37322	967	0.0088421347667449
5	37751	968	-0.0021688113571123
5	38174	969	-0.059132420092357
5	38594	970	-0.011091866700443
5	39014	971	0.08137028396828
5	39434	972	-0.013200135491786
5	39855	973	-4.5
2	9156	901	4.1783900467449
2	9311	902	6.1274968124253
2	9731	903	8.0113920979437
2	10151	904	9.9463100956057
2	10571	905	11.918211153704
2	10991	906	13.946215784657
2	11411	907	16.02532929471
2	11831	908	18.096159477451
2	12251	909	20.16650299575
2	12671	910	22.017706498148
2	13091	911	24.053991433641
2	13511	912	25.985315353321
2	13931	913	28.009680253214
2	14351	914	29.8777092336
2	14771	915	29.903129323544
2	15191	916	29.880495370806
2	15611	917	29.9061741007
2	16031	918	29.869127756448
2	16451	919	29.809960512375
2	16871	920	29.906263818303
2	17291	921	29.88929379473
2	17711	922	29.895622220004
2	18131	923	29.922451475367
2	18551	924	29.847795114103
2	18971	925	29.850257638921
2	19391	926	29.893608444559
2	19811	927	29.8657374287
2	20231	928	29.932446537609
2	20651	929	29.921222043536
2	21072	930	29.859192717101
2	21502	931	29.9331668997
2	21931	932	29.845603951958
2	22361	933	29.880152021635
2	22792	934	29.812295315079
2	23231	935	29.847567209685
2	23673	936	29.924848029632
2	24114	937	29.873457287229
2	24556	938	29.83389326853
2	24998	939	29.921519023487
2	25440	940	29.822608408111
2	25882	941	29.894981423453
2	26324	942	29.844827505958
2	26766	943	29.893050918742
2	27208	944	29.837969817021
2	27650	945	29.866601279497
2	28092	946	29.843558592598
2	28534	947	29.921209381439
2	28976	948	29.83074303109
2	29418	949	29.898354493456
2	29860	950	29.819222433565
2	30302	951	29.887685950841
2	30744	952	29.925920836877
2	31186	953	29.863880157648
2	31628	954	29.887509603787
2	32070	955	29.936007865935
2	32512	956	29.813912483596
2	32954	957	29.825157260215
2	33396	958	29.810949043746
2	33838	959	29.843672751295
2	34280	960	29.827364064581
2	34722	961	29.836680581011
2	35163	962	29.852717406719
2	35598	963	29.846522076398
2	36029	964	29.809715365467
2	36460	965	29.837338093994
2	36891	966	29.883441745506
2	37322	967	29.892283880273
2	37751	968	29.890115068916
2	38174	969	29.830982648823
2	38594	970	29.819890782123
2	39014	971	29.901261066091
2	39434	972	29.888060930599
2	39855	973	25.388060930599
1	9001	900	20.2
1	9156	901	20.2
1	9311	902	20.2
1	9731	903	20.2
1	10151	904	20.2
1	10571	905	20.2
1	10991	906	20.2
1	11411	907	20.2
1	11831	908	20.2
1	12251	909	20.2
1	12671	910	20.2
1	13091	911	20.2
1	13511	912	20.2
1	13931	913	20.2
1	14351	914	20.2
1	14771	915	20.2
1	15191	916	20.2
1	15611	917	20.2
1	16031	918	20.2
1	16451	919	20.2
1	16871	920	20.2
1	17291	921	20.2
1	17711	922	20.2
1	18131	923	20.2
1	18551	924	20.2
1	18971	925	20.2
1	19391	926	20.2
1	19811	927	20.2
1	20231	928	20.2
1	20651	929	20.2
1	21072	930	20.2
1	21502	931	20.2
1	21931	932	20.2
1	22361	933	20.2
1	22792	934	20.2
1	23231	935	20.2
1	23673	936	20.2
1	24114	937	20.2
1	24556	938	20.2
1	24998	939	20.2
1	25440	940	20.2
1	25882	941	20.2
1	26324	942	20.2
1	26766	943	20.2
1	27208	944	20.2
1	27650	945	20.2
1	28092	946	20.2
1	28534	947	20.2
1	28976	948	20.2
1	29418	949	20.2
1	29860	950	20.2
1	30302	951	20.2
1	30744	952	20.2
1	31186	953	20.2
1	31628	954	20.2
1	32070	955	20.2
1	32512	956	20.2
1	32954	957	20.2
1	33396	958	20.2
1	33838	959	20.2
1	34280	960	20.2
1	34722	961	20.2
1	35163	962	20.2
1	35598	963	20.2
1	36029	964	20.2
1	36460	965	20.2
1	36891	966	20.2
1	37322	967	20.2
1	37751	968	20.2
1	38174	969	20.2
1	38594	970	20.2
1	39014	971	20.2
1	39434	972	20.2
1	39855	973	20.2
0	9001	900	31.162333637945
0	9156	901	34.405667229181
0	9311	902	39.619291099945
0	9731	903	46.734044224515
0	10151	904	55.814611344047
0	10571	905	66.8419116074
0	10991	906	79.864711865843
0	11411	907	94.930850787004
0	11831	908	112.09357262886
0	12251	909	131.3515549825
0	12671	910	152.57232811228
0	13091	911	175.68084563685
0	13511	912	200.85355917467
0	13931	913	227.93641706026
0	14351	914	257.02340244524
0	14771	915	286.89838089578
0	15191	916	316.77873781566
0	15611	917	346.63583682717
0	16031	918	376.51113140654
0	16451	919	406.38035445217
0	16871	920	436.26558445782
0	17291	921	466.17302669781
0	17711	922	496.04713083595
0	18131	923	525.83954170565
0	18551	924	555.73682178738
0	18971	925	585.60742094813
0	19391	926	615.49243912531
0	19811	927	645.36949532582
0	20231	928	675.25078169252
0	20651	929	705.12581644863
0	21072	930	735.01572806538
0	21502	931	764.87834384453
0	21931	932	794.7431431129
0	22361	933	824.61738326911
0	22792	934	854.48009849918
0	23231	935	884.33278752858
0	23673	936	914.21232468273
0	24114	937	944.0826619019
0	24556	938	973.95253955934
0	24998	939	1003.82532319
0	25440	940	1033.7100288278
0	25882	941	1063.5837134165
0	26324	942	1093.4562574364
0	26766	943	1123.3323167941
0	27208	944	1153.2198397811
0	27650	945	1183.0833489877
0	28092	946	1212.9542314281
0	28534	947	1242.8377825211
0	28976	948	1272.7282667927
0	29418	949	1302.6149483717
0	29860	950	1332.4789106698
0	30302	951	1362.3512859699
0	30744	952	1392.2346069075
0	31186	953	1422.1248103714
0	31628	954	1452.0071436836
0	32070	955	1481.8779825589
0	32512	956	1511.7693091503
0	32954	957	1541.5602404167
0	33396	958	1571.4315803506
0	33838	959	1601.2958116427
0	34280	960	1631.1833674767
0	34722	961	1661.0487192494
0	35163	962	1690.9043722211
0	35598	963	1720.7864068731
0	36029	964	1750.6691563747
0	36460	965	1780.550901732
0	36891	966	1810.412621614
0	37322	967	1840.2884778462
0	37751	968	1870.1583738163
0	38174	969	1900.0570190491
0	38594	970	1929.9179356127
0	39014	971	1959.7960076363
0	39434	972	1989.6683552213
0	39855	973	2017.0814161518
9	10151	904	3.7958174285954
9	10571	905	4.3877935474603
9	10991	906	5.7650048211934
9	11411	907	6.1627097405917
9	11831	908	7.5763050376568
9	12251	909	9.5275672378739
9	12671	910	9.3864875884679
9	13091	911	11.577709272102
9	13511	912	12.472342327769
9	13931	913	13.918381620659
9	14351	914	15.667097119526
9	14771	915	15.552947793013
9	15191	916	17.5989847874
9	15611	917	4.2747240245627
9	16031	918	4.2955832910209
9	16451	919	4.7355386451575
9	16871	920	4.2133879410093
9	17291	921	4.6553021911066
9	17711	922	4.8111594506197
9	18131	923	3.8747601709283
9	18551	924	4.7146860893087
9	18971	925	4.6302940646771
9	19391	926	4.4948522235639
9	19811	927	4.6502869916499
9	20231	928	4.6734704750437
9	20651	929	3.884423291265
9	21072	930	4.6311888115493
9	21502	931	4.3278700825194
9	21931	932	5.1764273745353
9	22361	933	3.8180960563559
9	22792	934	4.4134941109354
9	23231	935	4.8224833164009
9	23673	936	4.2535065227542
9	24114	937	4.7873698448072
9	24556	938	4.5382330149525
9	24998	939	4.5260340549774
9	25440	940	4.7760502609923
9	25882	941	4.4239214336818
9	26324	942	4.6468820048777
9	26766	943	4.2759042336337
9	27208	944	4.6816469267346
9	27650	945	4.2174859952229
9	28092	946	4.821719273112
9	28534	947	3.8078541546119
9	28976	948	5.1383531442172
9	29418	949	3.841390741927
9	29860	950	4.510547642634
9	30302	951	4.9815544067071
9	30744	952	4.7438731047716
9	31186	953	3.966448191451
9	31628	954	4.2650598136619
9	32070	955	5.106764634056
9	32512	956	4.3011821029811
9	32954	957	4.074437815556
9	33396	958	4.7402354510368
9	33838	959	5.1117325718161
9	34280	960	4.4633773997113
9	34722	961	4.3103346199198
9	35163	962	4.0724161148966
9	35598	963	4.3649385406327
9	36029	964	4.8433118913726
9	36460	965	4.7047315549586
9	36891	966	4.6327935330656
9	37322	967	3.9419329693846
9	37751	968	4.9753881087525
9	38174	969	4.0634127645227
9	38594	970	5.0665096779272
9	39014	971	3.8723266354975
9	39434	972	4.5790277516197
9	39855	973	4.9088229717797
9	40275	974	3.8920801099562
9	40430	975	4.7003469009796
9	40585	976	4.9399059897608
9	40740	977	4.0371559185537
9	40895	978	4.9014825342005
9	41050	979	4.7372508365716
8	10151	904	2.0575221588975
8	10571	905	1.8058640835737
8	10991	906	1.9883036303776
8	11411	907	1.760178912573
8	11831	908	1.9085715479054
8	12251	909	2.1269893481047
8	12671	910	1.8035329894233
8	13091	911	2.0381071836432
8	13511	912	1.9629918358894
8	13931	913	1.9921408532816
8	14351	914	2.0525340162241
8	14771	915	1.8260895103938
8	15191	916	1.9307006589598
8	15611	917	-0.034654789138585
8	16031	918	-0.030407566812354
8	16451	919	0.03332743786741
8	16871	920	-0.042230657360051
8	17291	921	0.022273128679956
8	17711	922	0.043535177733283
8	18131	923	-0.091420053532346
8	18551	924	0.031709716990587
8	18971	925	0.018482652225067
8	19391	926	-0.0014854711573555
8	19811	927	0.020668404330497
8	20231	928	0.023161248618273
8	20651	929	-0.090077575352044
8	21072	930	0.019736895388924
8	21502	931	-0.024224606410133
8	21931	932	0.097299624737353
8	22361	933	-0.099656495889651
8	22792	934	-0.011019560422284
8	23231	935	0.047637751786972
8	23673	936	-0.035204641537277
8	24114	937	0.042158124586567
8	24556	938	0.0051040108758045
8	24998	939	0.0031744425953342
8	25440	940	0.038571226019414
8	25882	941	-0.012924936350903
8	26324	942	0.019243100869936
8	26766	943	-0.034221075719689
8	27208	944	0.024757264808287
8	27650	945	-0.042195720782036
8	28092	946	0.045316309400366
8	28534	947	-0.10080189302331
8	28976	948	0.092431974185168
8	29418	949	-0.095713738061022
8	29860	950	0.0033380501577618
8	30302	951	0.070199420130812
8	30744	952	0.0336926965788
8	31186	953	-0.078238073564133
8	31628	954	-0.032772529686337
8	32070	955	0.088244571019896
8	32512	956	-0.029664058461787
8	32954	957	-0.060942866271361
8	33396	958	0.03628837149823
8	33838	959	0.087563329511323
8	34280	960	-0.0078280001925286
8	34722	961	-0.029299501725472
8	35163	962	-0.062155189095066
8	35598	963	-0.018124313168229
8	36029	964	0.050691137672402
8	36460	965	0.029014094041194
8	36891	966	0.017673638630658
8	37322	967	-0.081404524776151
8	37751	968	0.068804488170425
8	38174	969	-0.063602025017609
8	38594	970	0.081511433655397
8	39014	971	-0.091541498792356
8	39434	972	0.012659962642935
8	39855	973	0.059047883157618
8	40275	974	-0.088024300429968
8	40430	975	0.030562446662223
8	40585	976	0.063394147865473
8	40740	977	-0.067495121560057
8	40895	978	0.05810647116741
8	41050	979	0.03251258215867
7	9731	903	2.8585373363743
7	10151	904	4.9160594952718
7	10571	905	6.7219235788455
7	10991	906	8.7102272092231
7	11411	907	10.470406121796
7	11831	908	12.378977669702
7	12251	909	14.505967017806
7	12671	910	16.30950000723
7	13091	911	18.347607190873
7	13511	912	20.310599026762
7	13931	913	22.302739880044
7	14351	914	24.355273896268
7	14771	915	26.181363406662
7	15191	916	28.112064065621
7	15611	917	28.077409276483
7	16031	918	28.047001709671
7	16451	919	28.080329147538
7	16871	920	28.038098490178
7	17291	921	28.060371618858
7	17711	922	28.103906796591
7	18131	923	28.012486743059
7	18551	924	28.044196460049
7	18971	925	28.062679112274
7	19391	926	28.061193641117
7	19811	927	28.081862045448
7	20231	928	28.105023294066
7	20651	929	28.014945718714
7	21072	930	28.034682614103
7	21502	931	28.010458007693
7	21931	932	28.10775763243
7	22361	933	28.00810113654
7	22792	934	27.997081576118
7	23231	935	28.044719327905
7	23673	936	28.009514686368
7	24114	937	28.051672810954
7	24556	938	28.05677682183
7	24998	939	28.059951264425
7	25440	940	28.098522490445
7	25882	941	28.085597554094
7	26324	942	28.104840654964
7	26766	943	28.070619579244
7	27208	944	28.095376844052
7	27650	945	28.05318112327
7	28092	946	28.098497432671
7	28534	947	27.997695539647
7	28976	948	28.090127513833
7	29418	949	27.994413775772
7	29860	950	27.997751825929
7	30302	951	28.06795124606
7	30744	952	28.101643942639
7	31186	953	28.023405869075
7	31628	954	27.990633339389
7	32070	955	28.078877910408
7	32512	956	28.049213851947
7	32954	957	27.988270985675
7	33396	958	28.024559357173
7	33838	959	28.112122686685
7	34280	960	28.104294686492
7	34722	961	28.074995184767
7	35163	962	28.012839995672
7	35598	963	27.994715682504
7	36029	964	28.045406820176
7	36460	965	28.074420914217
7	36891	966	28.092094552848
7	37322	967	28.010690028072
7	37751	968	28.079494516242
7	38174	969	28.015892491224
7	38594	970	28.09740392488
7	39014	971	28.005862426087
7	39434	972	28.01852238873
7	39855	973	28.077570271888
7	40275	974	27.989545971458
7	40430	975	28.02010841812
7	40585	976	28.083502565986
7	40740	977	28.016007444426
7	40895	978	28.074113915593
7	41050	979	28.106626497752
4	9311	902	20.2
4	9731	903	20.2
4	10151	904	20.2
4	10571	905	20.2
4	10991	906	20.2
4	11411	907	20.2
4	11831	908	20.2
4	12251	909	20.2
4	12671	910	20.2
4	13091	911	20.2
4	13511	912	20.2
4	13931	913	20.2
4	14351	914	20.2
4	14771	915	20.2
4	15191	916	20.2
4	15611	917	20.2
4	16031	918	20.2
4	16451	919	20.2
4	16871	920	20.2
4	17291	921	20.2
4	17711	922	20.2
4	18131	923	20.2
4	18551	924	20.2
4	18971	925	20.2
4	19391	926	20.2
4	19811	927	20.2
4	20231	928	20.2
4	20651	929	20.2
4	21072	930	20.2
4	21502	931	20.2
4	21931	932	20.2
4	22361	933	20.2
4	22792	934	20.2
4	23231	935	20.2
4	23673	936	20.2
4	24114	937	20.2
4	24556	938	20.2
4	24998	939	20.2
4	25440	940	20.2
4	25882	941	20.2
4	26324	942	20.2
4	26766	943	20.2
4	27208	944	20.2
4	27650	945	20.2
4	28092	946	20.2
4	28534	947	20.2
4	28976	948	20.2
4	29418	949	20.2
4	29860	950	20.2
4	30302	951	20.2
4	30744	952	20.2
4	31186	953	20.2
4	31628	954	20.2
4	32070	955	20.2
4	32512	956	20.2
4	32954	957	20.2
4	33396	958	20.2
4	33838	959	20.2
4	34280	960	20.2
4	34722	961	20.2
4	35163	962	20.2
4	35598	963	20.2
4	36029	964	20.2
4	36460	965	20.2
4	36891	966	20.2
4	37322	967	20.2
4	37751	968	20.2
4	38174	969	20.2
4	38594	970	20.2
4	39014	971	20.2
4	39434	972	20.2
4	39855	973	20.2
4	40275	974	20.2
4	40430	975	20.2
4	40585	976	20.2
4	40740	977	20.2
4	40895	978	20.2
4	41050	979	20.2
3	9311	902	30.253137847226
3	9731	903	32.195075445227
3	10151	904	36.208354073425
3	10571	905	42.098305462836
3	10991	906	49.881153681992
3	11411	907	59.579302164598
3	11831	908	71.129595403775
3	12251	909	84.676499066224
3	12671	910	100.18074442873
3	13091	911	117.53084648154
3	13511	912	136.9605636939
3	13931	913	158.3802504664
3	14351	914	181.78169808963
3	14771	915	207.12299142696
3	15191	916	234.39128778465
3	15611	917	262.44278350301
3	16031	918	290.50162573571
3	16451	919	318.56248350361
3	16871	920	346.59254965879
3	17291	921	374.65167273434
3	17711	922	402.69183932668
3	18131	923	430.73944933095
3	18551	924	458.79615723208
3	18971	925	486.86656901528
3	19391	926	514.93019716275
3	19811	927	542.90591805005
3	20231	928	570.96724854974
3	20651	929	599.00486666718
3	21072	930	627.06856145058
3	21502	931	655.09241393148
3	21931	932	683.12864586963
3	22361	933	711.18934508047
3	22792	934	739.24870366322
3	23231	935	767.31050831327
3	23673	936	795.3515288315
3	24114	937	823.42158525049
3	24556	938	851.45843248761
3	24998	939	879.50662955178
3	25440	940	907.56689001193
3	25882	941	935.62083043103
3	26324	942	963.66842334489
3	26766	943	991.71525274702
3	27208	944	1019.7673937454
3	27650	945	1047.8105862176
3	28092	946	1075.8698133516
3	28534	947	1103.9274995988
3	28976	948	1131.9842886596
3	29418	949	1160.0363257189
3	29860	950	1188.0904148305
3	30302	951	1216.1452110756
3	30744	952	1244.217619108
3	31186	953	1272.2497188871
3	31628	954	1300.3101759536
3	32070	955	1328.3900829507
3	32512	956	1356.4304210082
3	32954	957	1384.4626146743
3	33396	958	1412.5058327974
3	33838	959	1440.5632477834
3	34280	960	1468.6335098441
3	34722	961	1496.7145510006
3	35163	962	1524.7741899748
3	35598	963	1552.7032828847
3	36029	964	1580.7379130073
3	36460	965	1608.8179253832
3	36891	966	1636.8718280456
3	37322	967	1664.9248222217
3	37751	968	1692.9663167341
3	38174	969	1721.0114835953
3	38594	970	1749.0591260559
3	39014	971	1777.1087833686
3	39434	972	1805.1486508877
3	39855	973	1833.2155882433
3	40275	974	1861.2695218082
3	40430	975	1889.2937728912
3	40585	976	1917.3306863247
3	40740	977	1945.3873575206
3	40895	978	1973.4371681998
3	41050	979	2001.4659435511

