version 2
run General-0-20250327-10:46:22-243192
attr configname General
attr datetime 20250327-10:46:22
attr experiment General
attr inifile omnetpp.ini
attr iterationvars ""
attr iterationvarsf ""
attr measurement ""
attr network vasp.scenario.DefconScenario
attr processid 243192
attr repetition 0
attr replication #0
attr resultdir results
attr runnumber 0
attr seedset 0
param *.playgroundSizeX 5000m
param *.playgroundSizeY 5000m
param *.playgroundSizeZ 50m
param *.annotations.draw true
param *.manager.updateInterval 1s
param *.manager.host "\"localhost\""
param *.manager.port 9999
param *.manager.autoShutdown true
param *.manager.launchConfig "xmldoc(\"boston.launchd.xml\")"
param *.rsu[0].mobility.x 1200
param *.rsu[0].mobility.y 200
param *.rsu[0].mobility.z 3
param *.rsu[*].applType "\"TraCIDemoRSU11p\""
param *.rsu[*].appl.headerLength "80 bit"
param *.rsu[*].appl.sendBeacons true
param *.rsu[*].appl.dataOnSch false
param *.rsu[*].appl.beaconInterval 1s
param *.rsu[*].appl.beaconUserPriority 7
param *.rsu[*].appl.dataUserPriority 5
param *.rsu[*].nic.phy80211p.antennaOffsetZ "0 m"
param *.connectionManager.sendDirect true
param *.connectionManager.maxInterfDist 2600m
param *.connectionManager.drawMaxIntfDist false
param *.**.nic.mac1609_4.useServiceChannel false
param *.**.nic.mac1609_4.txPower 20mW
param *.**.nic.mac1609_4.bitrate 6Mbps
param *.**.nic.phy80211p.minPowerLevel -110dBm
param *.**.nic.phy80211p.useNoiseFloor true
param *.**.nic.phy80211p.noiseFloor -98dBm
param *.**.nic.phy80211p.decider "xmldoc(\"../../../examples/veins/config.xml\")"
param *.**.nic.phy80211p.analogueModels "xmldoc(\"../../../examples/veins/config.xml\")"
param *.**.nic.phy80211p.usePropagationDelay true
param *.**.nic.phy80211p.antenna "xmldoc(\"../../../examples/veins/antenna.xml\", \"/root/Antenna[@id='monopole']\")"
param *.node[*].nic.phy80211p.antennaOffsetY "0 m"
param *.node[*].nic.phy80211p.antennaOffsetZ "1.895 m"
param *.node[*].applType "\"CarApp\""
param *.node[*].appl.headerLength "80 bit"
param *.node[*].appl.sendBeacons true
param *.node[*].appl.dataOnSch false
param *.node[*].appl.beaconInterval 0.1s
param *.node[*].appl.runID "\"General-0-20250327-10:46:22-243192\""
param *.node[*].veinsmobility.x 0
param *.node[*].veinsmobility.y 0
param *.node[*].veinsmobility.z 0
param *.node[*].veinsmobility.setHostSpeed false
param *.node[*0].veinsmobility.accidentCount 1
param *.node[*0].veinsmobility.accidentStart 73s
param *.node[*0].veinsmobility.accidentDuration 50s
param **.traceManager.filepath "\"results/rxtrace-General-0-20250327-10:46:22-243192.csv\""
param *.node[*].appl.attackPolicy 1
param *.node[*].appl.sporadicInsertionRate 0.6
param *.node[*].appl.maliciousProbability 0.5
param *.node[*].appl.attackType 55
param *.node[*].appl.nDosMessages 4
param *.node[*].appl.speedAttackOffset 10mps

scalar DefconScenario.node[0].appl generatedWSMs 0
scalar DefconScenario.node[0].appl receivedWSMs 0
scalar DefconScenario.node[0].appl generatedBSMs 740
scalar DefconScenario.node[0].appl receivedBSMs 753
scalar DefconScenario.node[0].appl generatedWSAs 0
scalar DefconScenario.node[0].appl receivedWSAs 0
scalar DefconScenario.node[0].nic.phy80211p busyTime 0.0011158918918919
scalar DefconScenario.node[0].nic.mac1609_4 ReceivedUnicastPackets 0
scalar DefconScenario.node[0].nic.mac1609_4 ReceivedBroadcasts 753
scalar DefconScenario.node[0].nic.mac1609_4 SentPackets 740
scalar DefconScenario.node[0].nic.mac1609_4 SentAcknowledgements 0
scalar DefconScenario.node[0].nic.mac1609_4 RetriesExceeded 0
scalar DefconScenario.node[0].nic.mac1609_4 SNIRLostPackets 41
scalar DefconScenario.node[0].nic.mac1609_4 RXTXLostPackets 0
scalar DefconScenario.node[0].nic.mac1609_4 TotalLostPackets 41
scalar DefconScenario.node[0].nic.mac1609_4 DroppedPacketsInMac 0
scalar DefconScenario.node[0].nic.mac1609_4 TooLittleTime 0
scalar DefconScenario.node[0].nic.mac1609_4 TimesIntoBackoff 740
scalar DefconScenario.node[0].nic.mac1609_4 SlotsBackoff 1130
scalar DefconScenario.node[0].nic.mac1609_4 NumInternalContention 0
scalar DefconScenario.node[0].nic.mac1609_4 totalBusyTime 0.160276
scalar DefconScenario.node[0].nic.mac1609_4 retriesExceeded:count 0
attr source org_car2x_veins_modules_mac_sigRetriesExceeded
scalar DefconScenario.node[0].nic.mac1609_4 sentAcks:count 0
attr source org_car2x_veins_modules_mac_sigSentAck
scalar DefconScenario.node[0].nic.mac1609_4 sentPackets:count 740
attr source org_car2x_veins_modules_mac_sigSentPacket
scalar DefconScenario.node[0].nic.mac1609_4 collisions:count 0
attr source org_car2x_veins_modules_mac_sigCollision
scalar DefconScenario.node[0].nic.mac1609_4 channelBusy:timeavg 0.0021658918918919
attr source org_car2x_veins_modules_mac_sigChannelBusy
scalar DefconScenario.node[0].veinsmobility startTime 900
scalar DefconScenario.node[0].veinsmobility totalTime 73
scalar DefconScenario.node[0].veinsmobility stopTime 974
scalar DefconScenario.node[0].veinsmobility minSpeed 4.1783900467449
scalar DefconScenario.node[0].veinsmobility maxSpeed 29.936007865935
scalar DefconScenario.node[0].veinsmobility totalDistance 1985.9190825139
scalar DefconScenario.node[0].veinsmobility totalCO2Emission 439.76028377193
scalar DefconScenario.node[1].appl generatedWSMs 0
scalar DefconScenario.node[1].appl receivedWSMs 0
scalar DefconScenario.node[1].appl generatedBSMs 780
scalar DefconScenario.node[1].appl receivedBSMs 753
scalar DefconScenario.node[1].appl generatedWSAs 0
scalar DefconScenario.node[1].appl receivedWSAs 0
scalar DefconScenario.node[1].nic.phy80211p busyTime 0.001064
scalar DefconScenario.node[1].nic.mac1609_4 ReceivedUnicastPackets 0
scalar DefconScenario.node[1].nic.mac1609_4 ReceivedBroadcasts 753
scalar DefconScenario.node[1].nic.mac1609_4 SentPackets 780
scalar DefconScenario.node[1].nic.mac1609_4 SentAcknowledgements 0
scalar DefconScenario.node[1].nic.mac1609_4 RetriesExceeded 0
scalar DefconScenario.node[1].nic.mac1609_4 SNIRLostPackets 45
scalar DefconScenario.node[1].nic.mac1609_4 RXTXLostPackets 0
scalar DefconScenario.node[1].nic.mac1609_4 TotalLostPackets 45
scalar DefconScenario.node[1].nic.mac1609_4 DroppedPacketsInMac 0
scalar DefconScenario.node[1].nic.mac1609_4 TooLittleTime 0
scalar DefconScenario.node[1].nic.mac1609_4 TimesIntoBackoff 780
scalar DefconScenario.node[1].nic.mac1609_4 SlotsBackoff 1165
scalar DefconScenario.node[1].nic.mac1609_4 NumInternalContention 0
scalar DefconScenario.node[1].nic.mac1609_4 totalBusyTime 0.164892
scalar DefconScenario.node[1].nic.mac1609_4 retriesExceeded:count 0
attr source org_car2x_veins_modules_mac_sigRetriesExceeded
scalar DefconScenario.node[1].nic.mac1609_4 sentAcks:count 0
attr source org_car2x_veins_modules_mac_sigSentAck
scalar DefconScenario.node[1].nic.mac1609_4 sentPackets:count 780
attr source org_car2x_veins_modules_mac_sigSentPacket
scalar DefconScenario.node[1].nic.mac1609_4 collisions:count 0
attr source org_car2x_veins_modules_mac_sigCollision
scalar DefconScenario.node[1].nic.mac1609_4 channelBusy:timeavg 0.002114
attr source org_car2x_veins_modules_mac_sigChannelBusy
scalar DefconScenario.node[1].veinsmobility startTime 902
scalar DefconScenario.node[1].veinsmobility totalTime 77
scalar DefconScenario.node[1].veinsmobility stopTime 980
scalar DefconScenario.node[1].veinsmobility minSpeed 2.8585373363743
scalar DefconScenario.node[1].veinsmobility maxSpeed 28.112122686685
scalar DefconScenario.node[1].veinsmobility totalDistance 1971.2128057039
scalar DefconScenario.node[1].veinsmobility totalCO2Emission 417.03291108976
scalar DefconScenario.manager roiArea 0
scalar DefconScenario.rsu[0].appl generatedWSMs 0
scalar DefconScenario.rsu[0].appl receivedWSMs 0
scalar DefconScenario.rsu[0].appl generatedBSMs 3600
scalar DefconScenario.rsu[0].appl receivedBSMs 657
scalar DefconScenario.rsu[0].appl generatedWSAs 0
scalar DefconScenario.rsu[0].appl receivedWSAs 0
scalar DefconScenario.rsu[0].nic.phy80211p busyTime 4.3911111111112e-05
scalar DefconScenario.rsu[0].nic.mac1609_4 ReceivedUnicastPackets 0
scalar DefconScenario.rsu[0].nic.mac1609_4 ReceivedBroadcasts 657
scalar DefconScenario.rsu[0].nic.mac1609_4 SentPackets 3600
scalar DefconScenario.rsu[0].nic.mac1609_4 SentAcknowledgements 0
scalar DefconScenario.rsu[0].nic.mac1609_4 RetriesExceeded 0
scalar DefconScenario.rsu[0].nic.mac1609_4 SNIRLostPackets 863
scalar DefconScenario.rsu[0].nic.mac1609_4 RXTXLostPackets 0
scalar DefconScenario.rsu[0].nic.mac1609_4 TotalLostPackets 863
scalar DefconScenario.rsu[0].nic.mac1609_4 DroppedPacketsInMac 0
scalar DefconScenario.rsu[0].nic.mac1609_4 TooLittleTime 0
scalar DefconScenario.rsu[0].nic.mac1609_4 TimesIntoBackoff 3600
scalar DefconScenario.rsu[0].nic.mac1609_4 SlotsBackoff 5404
scalar DefconScenario.rsu[0].nic.mac1609_4 NumInternalContention 0
scalar DefconScenario.rsu[0].nic.mac1609_4 totalBusyTime 0.53608
scalar DefconScenario.rsu[0].nic.mac1609_4 retriesExceeded:count 0
attr source org_car2x_veins_modules_mac_sigRetriesExceeded
scalar DefconScenario.rsu[0].nic.mac1609_4 sentAcks:count 0
attr source org_car2x_veins_modules_mac_sigSentAck
scalar DefconScenario.rsu[0].nic.mac1609_4 sentPackets:count 3600
attr source org_car2x_veins_modules_mac_sigSentPacket
scalar DefconScenario.rsu[0].nic.mac1609_4 collisions:count 0
attr source org_car2x_veins_modules_mac_sigCollision
scalar DefconScenario.rsu[0].nic.mac1609_4 channelBusy:timeavg 0.00014891111111112
attr source org_car2x_veins_modules_mac_sigChannelBusy

