file 44012537 1704905653                                        
version 2
run Default-0-20240110-16:37:11-29357
attr configname Default
attr datetime 20240110-16:37:11
attr experiment Default
attr inifile omnetpp.ini
attr iterationvars ""
attr iterationvarsf ""
attr measurement ""
attr network RSUExampleScenario3
attr processid 29357
attr repetition 0
attr replication #0
attr resultdir results
attr runnumber 0
attr seedset 0
param *.playgroundSizeX 4000m
param *.playgroundSizeY 4000m
param *.playgroundSizeZ 50m
param *.annotations.draw true
param *.manager.updateInterval 1s
param *.manager.host "\"localhost\""
param *.manager.port 9999
param *.manager.autoShutdown true
param *.manager.launchConfig "xmldoc(\"lostest1.launchd.xml\")"
param *.rsu[0].mobility.x 1775
param *.rsu[0].mobility.y 1525
param *.rsu[0].mobility.z 3
param *.rsu[*].applType "\"TraCIDemoRSU11p\""
param *.rsu[*].appl.headerLength "80 bit"
param *.rsu[*].appl.sendBeacons false
param *.rsu[*].appl.dataOnSch false
param *.rsu[*].appl.beaconInterval 1s
param *.rsu[*].appl.beaconUserPriority 7
param *.rsu[*].appl.dataUserPriority 5
param *.rsu[*].nic.phy80211p.antennaOffsetZ "0 m"
param *.connectionManager.sendDirect true
param *.connectionManager.maxInterfDist 2600m
param *.connectionManager.drawMaxIntfDist false
param *.**.nic.mac1609_4.useServiceChannel false
param *.node[*].nic.mac1609_4.txPower 20mW
param *.rsu[*].nic.mac1609_4.txPower 15.5mW
param *.**.nic.mac1609_4.bitrate 6Mbps
param *.**.nic.phy80211p.minPowerLevel -89dBm
param *.**.nic.phy80211p.useNoiseFloor true
param *.**.nic.phy80211p.noiseFloor -98dBm
param *.**.nic.phy80211p.decider "xmldoc(\"config.xml\")"
param *.**.nic.phy80211p.analogueModels "xmldoc(\"config.xml\")"
param *.**.nic.phy80211p.usePropagationDelay true
param *.**.nic.phy80211p.antenna "xmldoc(\"antenna.xml\", \"/root/Antenna[@id='monopole']\")"
param *.node[*].nic.phy80211p.antennaOffsetY "0 m"
param *.node[*].nic.phy80211p.antennaOffsetZ "1.895 m"
param *.node[*].applType "\"MyVeinsApp\""
param *.node[*].appl.headerLength "80 bit"
param *.node[*].appl.sendBeacons false
param *.node[*].appl.dataOnSch false
param *.node[*].appl.beaconInterval 1s
param *.node[*].veinsmobility.x 0
param *.node[*].veinsmobility.y 0
param *.node[*].veinsmobility.z 0
param *.node[*].manager.routeFile "\"lostest1.rou.xml\""
param *.node[*].veinsmobility.setHostSpeed false
param *.node[0].veinsmobility.accidentCount 0
param *.node[0].veinsmobility.accidentStart 80s
param *.node[0].veinsmobility.accidentDuration 200s
param *.hacker[*].applType "\"MyVeinsApp\""
param *.hacker[*].appl.headerLength "80 bit"
param *.hacker[*].appl.sendBeacons true
param *.hacker[*].appl.dataOnSch false
param *.hacker[*].appl.beaconInterval 1s
param *.hacker[*].appl.beaconUserPriority 7
param *.hacker[*].appl.dataUserPriority 5
param *.hacker[*].nic.phy80211p.antennaOffsetZ "0 m"

vector 0 RSUExampleScenario3.node[0].veinsmobility posx ETV
vector 1 RSUExampleScenario3.node[0].veinsmobility posy ETV
vector 2 RSUExampleScenario3.node[0].veinsmobility speed ETV
vector 3 RSUExampleScenario3.node[1].veinsmobility posx ETV
vector 4 RSUExampleScenario3.node[1].veinsmobility posy ETV
vector 5 RSUExampleScenario3.node[0].veinsmobility acceleration ETV
vector 6 RSUExampleScenario3.node[0].veinsmobility co2emission ETV
vector 7 RSUExampleScenario3.node[1].veinsmobility speed ETV
vector 8 RSUExampleScenario3.node[1].veinsmobility acceleration ETV
vector 9 RSUExampleScenario3.node[1].veinsmobility co2emission ETV
vector 10 RSUExampleScenario3.node[2].veinsmobility posx ETV
vector 11 RSUExampleScenario3.node[2].veinsmobility posy ETV
vector 12 RSUExampleScenario3.node[3].veinsmobility posx ETV
vector 13 RSUExampleScenario3.node[3].veinsmobility posy ETV
vector 14 RSUExampleScenario3.node[2].veinsmobility speed ETV
vector 15 RSUExampleScenario3.node[3].veinsmobility speed ETV
vector 16 RSUExampleScenario3.node[2].veinsmobility acceleration ETV
vector 17 RSUExampleScenario3.node[2].veinsmobility co2emission ETV
vector 18 RSUExampleScenario3.node[3].veinsmobility acceleration ETV
vector 19 RSUExampleScenario3.node[3].veinsmobility co2emission ETV
vector 20 RSUExampleScenario3.node[4].veinsmobility posx ETV
vector 21 RSUExampleScenario3.node[4].veinsmobility posy ETV
vector 22 RSUExampleScenario3.node[4].veinsmobility speed ETV
vector 23 RSUExampleScenario3.node[5].veinsmobility posx ETV
vector 24 RSUExampleScenario3.node[5].veinsmobility posy ETV
vector 25 RSUExampleScenario3.node[4].veinsmobility acceleration ETV
vector 26 RSUExampleScenario3.node[4].veinsmobility co2emission ETV
vector 27 RSUExampleScenario3.node[6].veinsmobility posx ETV
vector 28 RSUExampleScenario3.node[6].veinsmobility posy ETV
vector 29 RSUExampleScenario3.node[7].veinsmobility posx ETV
vector 30 RSUExampleScenario3.node[7].veinsmobility posy ETV
vector 31 RSUExampleScenario3.node[5].veinsmobility speed ETV
vector 32 RSUExampleScenario3.node[5].veinsmobility acceleration ETV
vector 33 RSUExampleScenario3.node[5].veinsmobility co2emission ETV
vector 34 RSUExampleScenario3.node[6].veinsmobility speed ETV
vector 35 RSUExampleScenario3.node[7].veinsmobility speed ETV
vector 36 RSUExampleScenario3.node[6].veinsmobility acceleration ETV
vector 37 RSUExampleScenario3.node[6].veinsmobility co2emission ETV
vector 38 RSUExampleScenario3.node[7].veinsmobility acceleration ETV
vector 39 RSUExampleScenario3.node[7].veinsmobility co2emission ETV
vector 40 RSUExampleScenario3.node[8].veinsmobility posx ETV
vector 41 RSUExampleScenario3.node[8].veinsmobility posy ETV
vector 42 RSUExampleScenario3.node[8].veinsmobility speed ETV
vector 43 RSUExampleScenario3.node[8].veinsmobility acceleration ETV
vector 44 RSUExampleScenario3.node[8].veinsmobility co2emission ETV
vector 45 RSUExampleScenario3.node[9].veinsmobility posx ETV
vector 46 RSUExampleScenario3.node[9].veinsmobility posy ETV
vector 47 RSUExampleScenario3.node[10].veinsmobility posx ETV
vector 48 RSUExampleScenario3.node[10].veinsmobility posy ETV
vector 49 RSUExampleScenario3.node[11].veinsmobility posx ETV
vector 50 RSUExampleScenario3.node[11].veinsmobility posy ETV
vector 51 RSUExampleScenario3.node[9].veinsmobility speed ETV
vector 52 RSUExampleScenario3.node[10].veinsmobility speed ETV
vector 53 RSUExampleScenario3.node[9].veinsmobility acceleration ETV
vector 54 RSUExampleScenario3.node[9].veinsmobility co2emission ETV
vector 55 RSUExampleScenario3.node[10].veinsmobility acceleration ETV
vector 56 RSUExampleScenario3.node[10].veinsmobility co2emission ETV
vector 57 RSUExampleScenario3.node[11].veinsmobility speed ETV
vector 58 RSUExampleScenario3.node[11].veinsmobility acceleration ETV
vector 59 RSUExampleScenario3.node[11].veinsmobility co2emission ETV
vector 60 RSUExampleScenario3.node[12].veinsmobility posx ETV
vector 61 RSUExampleScenario3.node[12].veinsmobility posy ETV
vector 62 RSUExampleScenario3.node[12].veinsmobility speed ETV
vector 63 RSUExampleScenario3.node[12].veinsmobility acceleration ETV
vector 64 RSUExampleScenario3.node[12].veinsmobility co2emission ETV
vector 65 RSUExampleScenario3.node[13].veinsmobility posx ETV
vector 66 RSUExampleScenario3.node[13].veinsmobility posy ETV
vector 67 RSUExampleScenario3.node[13].veinsmobility speed ETV
vector 68 RSUExampleScenario3.node[13].veinsmobility acceleration ETV
vector 69 RSUExampleScenario3.node[13].veinsmobility co2emission ETV
vector 70 RSUExampleScenario3.node[14].veinsmobility posx ETV
vector 71 RSUExampleScenario3.node[14].veinsmobility posy ETV
vector 72 RSUExampleScenario3.node[15].veinsmobility posx ETV
vector 73 RSUExampleScenario3.node[15].veinsmobility posy ETV
vector 74 RSUExampleScenario3.node[14].veinsmobility speed ETV
vector 75 RSUExampleScenario3.node[16].veinsmobility posx ETV
vector 76 RSUExampleScenario3.node[16].veinsmobility posy ETV
vector 77 RSUExampleScenario3.node[14].veinsmobility acceleration ETV
vector 78 RSUExampleScenario3.node[14].veinsmobility co2emission ETV
vector 79 RSUExampleScenario3.node[15].veinsmobility speed ETV
vector 80 RSUExampleScenario3.node[17].veinsmobility posx ETV
vector 81 RSUExampleScenario3.node[17].veinsmobility posy ETV
vector 82 RSUExampleScenario3.node[15].veinsmobility acceleration ETV
vector 83 RSUExampleScenario3.node[15].veinsmobility co2emission ETV
vector 84 RSUExampleScenario3.node[16].veinsmobility speed ETV
vector 85 RSUExampleScenario3.node[16].veinsmobility acceleration ETV
vector 86 RSUExampleScenario3.node[16].veinsmobility co2emission ETV
vector 87 RSUExampleScenario3.node[17].veinsmobility speed ETV
vector 88 RSUExampleScenario3.node[17].veinsmobility acceleration ETV
vector 89 RSUExampleScenario3.node[17].veinsmobility co2emission ETV
vector 90 RSUExampleScenario3.node[18].veinsmobility posx ETV
vector 91 RSUExampleScenario3.node[18].veinsmobility posy ETV
vector 92 RSUExampleScenario3.node[18].veinsmobility speed ETV
vector 93 RSUExampleScenario3.node[18].veinsmobility acceleration ETV
vector 94 RSUExampleScenario3.node[18].veinsmobility co2emission ETV
vector 95 RSUExampleScenario3.node[19].veinsmobility posx ETV
vector 96 RSUExampleScenario3.node[19].veinsmobility posy ETV
vector 97 RSUExampleScenario3.node[20].veinsmobility posx ETV
vector 98 RSUExampleScenario3.node[20].veinsmobility posy ETV
vector 99 RSUExampleScenario3.node[19].veinsmobility speed ETV
vector 100 RSUExampleScenario3.node[20].veinsmobility speed ETV
vector 101 RSUExampleScenario3.node[21].veinsmobility posx ETV
vector 102 RSUExampleScenario3.node[21].veinsmobility posy ETV
vector 103 RSUExampleScenario3.node[19].veinsmobility acceleration ETV
vector 104 RSUExampleScenario3.node[19].veinsmobility co2emission ETV
vector 105 RSUExampleScenario3.node[20].veinsmobility acceleration ETV
vector 106 RSUExampleScenario3.node[20].veinsmobility co2emission ETV
vector 107 RSUExampleScenario3.node[21].veinsmobility speed ETV
vector 108 RSUExampleScenario3.node[21].veinsmobility acceleration ETV
vector 109 RSUExampleScenario3.node[21].veinsmobility co2emission ETV
vector 110 RSUExampleScenario3.node[22].veinsmobility posx ETV
vector 111 RSUExampleScenario3.node[22].veinsmobility posy ETV
vector 112 RSUExampleScenario3.node[22].veinsmobility speed ETV
vector 113 RSUExampleScenario3.node[22].veinsmobility acceleration ETV
vector 114 RSUExampleScenario3.node[22].veinsmobility co2emission ETV
vector 115 RSUExampleScenario3.node[23].veinsmobility posx ETV
vector 116 RSUExampleScenario3.node[23].veinsmobility posy ETV
vector 117 RSUExampleScenario3.node[23].veinsmobility speed ETV
vector 118 RSUExampleScenario3.node[23].veinsmobility acceleration ETV
vector 119 RSUExampleScenario3.node[23].veinsmobility co2emission ETV
vector 120 RSUExampleScenario3.node[24].veinsmobility posx ETV
vector 121 RSUExampleScenario3.node[24].veinsmobility posy ETV
vector 122 RSUExampleScenario3.node[24].veinsmobility speed ETV
vector 123 RSUExampleScenario3.node[24].veinsmobility acceleration ETV
vector 124 RSUExampleScenario3.node[24].veinsmobility co2emission ETV
vector 125 RSUExampleScenario3.node[25].veinsmobility posx ETV
vector 126 RSUExampleScenario3.node[25].veinsmobility posy ETV
vector 127 RSUExampleScenario3.node[25].veinsmobility speed ETV
vector 128 RSUExampleScenario3.node[26].veinsmobility posx ETV
vector 129 RSUExampleScenario3.node[26].veinsmobility posy ETV
vector 130 RSUExampleScenario3.node[25].veinsmobility acceleration ETV
vector 131 RSUExampleScenario3.node[25].veinsmobility co2emission ETV
vector 132 RSUExampleScenario3.node[26].veinsmobility speed ETV
vector 133 RSUExampleScenario3.node[26].veinsmobility acceleration ETV
vector 134 RSUExampleScenario3.node[26].veinsmobility co2emission ETV
vector 135 RSUExampleScenario3.node[27].veinsmobility posx ETV
vector 136 RSUExampleScenario3.node[27].veinsmobility posy ETV
vector 137 RSUExampleScenario3.node[27].veinsmobility speed ETV
vector 138 RSUExampleScenario3.node[28].veinsmobility posx ETV
vector 139 RSUExampleScenario3.node[28].veinsmobility posy ETV
vector 140 RSUExampleScenario3.node[27].veinsmobility acceleration ETV
vector 141 RSUExampleScenario3.node[27].veinsmobility co2emission ETV
vector 142 RSUExampleScenario3.node[28].veinsmobility speed ETV
vector 143 RSUExampleScenario3.node[28].veinsmobility acceleration ETV
vector 144 RSUExampleScenario3.node[28].veinsmobility co2emission ETV
vector 145 RSUExampleScenario3.node[29].veinsmobility posx ETV
vector 146 RSUExampleScenario3.node[29].veinsmobility posy ETV
vector 147 RSUExampleScenario3.node[30].veinsmobility posx ETV
vector 148 RSUExampleScenario3.node[30].veinsmobility posy ETV
vector 149 RSUExampleScenario3.node[29].veinsmobility speed ETV
vector 150 RSUExampleScenario3.node[31].veinsmobility posx ETV
vector 151 RSUExampleScenario3.node[31].veinsmobility posy ETV
vector 152 RSUExampleScenario3.node[29].veinsmobility acceleration ETV
vector 153 RSUExampleScenario3.node[29].veinsmobility co2emission ETV
vector 154 RSUExampleScenario3.node[30].veinsmobility speed ETV
vector 155 RSUExampleScenario3.node[30].veinsmobility acceleration ETV
vector 156 RSUExampleScenario3.node[30].veinsmobility co2emission ETV
vector 157 RSUExampleScenario3.node[31].veinsmobility speed ETV
vector 158 RSUExampleScenario3.node[32].veinsmobility posx ETV
vector 159 RSUExampleScenario3.node[32].veinsmobility posy ETV
vector 160 RSUExampleScenario3.node[33].veinsmobility posx ETV
vector 161 RSUExampleScenario3.node[33].veinsmobility posy ETV
vector 162 RSUExampleScenario3.node[31].veinsmobility acceleration ETV
vector 163 RSUExampleScenario3.node[31].veinsmobility co2emission ETV
vector 164 RSUExampleScenario3.node[32].veinsmobility speed ETV
vector 165 RSUExampleScenario3.node[33].veinsmobility speed ETV
vector 166 RSUExampleScenario3.node[32].veinsmobility acceleration ETV
vector 167 RSUExampleScenario3.node[32].veinsmobility co2emission ETV
vector 168 RSUExampleScenario3.node[33].veinsmobility acceleration ETV
vector 169 RSUExampleScenario3.node[33].veinsmobility co2emission ETV
vector 170 RSUExampleScenario3.node[34].veinsmobility posx ETV
vector 171 RSUExampleScenario3.node[34].veinsmobility posy ETV
vector 172 RSUExampleScenario3.node[34].veinsmobility speed ETV
vector 173 RSUExampleScenario3.node[34].veinsmobility acceleration ETV
vector 174 RSUExampleScenario3.node[34].veinsmobility co2emission ETV
vector 175 RSUExampleScenario3.node[35].veinsmobility posx ETV
vector 176 RSUExampleScenario3.node[35].veinsmobility posy ETV
vector 177 RSUExampleScenario3.node[36].veinsmobility posx ETV
vector 178 RSUExampleScenario3.node[36].veinsmobility posy ETV
vector 179 RSUExampleScenario3.node[37].veinsmobility posx ETV
vector 180 RSUExampleScenario3.node[37].veinsmobility posy ETV
vector 181 RSUExampleScenario3.node[35].veinsmobility speed ETV
vector 182 RSUExampleScenario3.node[36].veinsmobility speed ETV
vector 183 RSUExampleScenario3.node[35].veinsmobility acceleration ETV
vector 184 RSUExampleScenario3.node[35].veinsmobility co2emission ETV
vector 185 RSUExampleScenario3.node[36].veinsmobility acceleration ETV
vector 186 RSUExampleScenario3.node[36].veinsmobility co2emission ETV
vector 187 RSUExampleScenario3.node[37].veinsmobility speed ETV
vector 188 RSUExampleScenario3.node[38].veinsmobility posx ETV
vector 189 RSUExampleScenario3.node[38].veinsmobility posy ETV
vector 190 RSUExampleScenario3.node[37].veinsmobility acceleration ETV
vector 191 RSUExampleScenario3.node[37].veinsmobility co2emission ETV
vector 192 RSUExampleScenario3.node[38].veinsmobility speed ETV
vector 193 RSUExampleScenario3.node[39].veinsmobility posx ETV
vector 194 RSUExampleScenario3.node[39].veinsmobility posy ETV
vector 195 RSUExampleScenario3.node[38].veinsmobility acceleration ETV
vector 196 RSUExampleScenario3.node[38].veinsmobility co2emission ETV
vector 197 RSUExampleScenario3.node[39].veinsmobility speed ETV
vector 198 RSUExampleScenario3.node[40].veinsmobility posx ETV
vector 199 RSUExampleScenario3.node[40].veinsmobility posy ETV
vector 200 RSUExampleScenario3.node[39].veinsmobility acceleration ETV
vector 201 RSUExampleScenario3.node[39].veinsmobility co2emission ETV
vector 202 RSUExampleScenario3.node[40].veinsmobility speed ETV
vector 203 RSUExampleScenario3.node[41].veinsmobility posx ETV
vector 204 RSUExampleScenario3.node[41].veinsmobility posy ETV
vector 205 RSUExampleScenario3.node[40].veinsmobility acceleration ETV
vector 206 RSUExampleScenario3.node[40].veinsmobility co2emission ETV
vector 207 RSUExampleScenario3.node[41].veinsmobility speed ETV
vector 208 RSUExampleScenario3.node[41].veinsmobility acceleration ETV
vector 209 RSUExampleScenario3.node[41].veinsmobility co2emission ETV
vector 210 RSUExampleScenario3.node[42].veinsmobility posx ETV
vector 211 RSUExampleScenario3.node[42].veinsmobility posy ETV
vector 212 RSUExampleScenario3.node[42].veinsmobility speed ETV
vector 213 RSUExampleScenario3.node[42].veinsmobility acceleration ETV
vector 214 RSUExampleScenario3.node[42].veinsmobility co2emission ETV
vector 215 RSUExampleScenario3.node[43].veinsmobility posx ETV
vector 216 RSUExampleScenario3.node[43].veinsmobility posy ETV
vector 217 RSUExampleScenario3.node[43].veinsmobility speed ETV
vector 218 RSUExampleScenario3.node[44].veinsmobility posx ETV
vector 219 RSUExampleScenario3.node[44].veinsmobility posy ETV
vector 220 RSUExampleScenario3.node[43].veinsmobility acceleration ETV
vector 221 RSUExampleScenario3.node[43].veinsmobility co2emission ETV
vector 222 RSUExampleScenario3.node[45].veinsmobility posx ETV
vector 223 RSUExampleScenario3.node[45].veinsmobility posy ETV
vector 224 RSUExampleScenario3.node[44].veinsmobility speed ETV
vector 225 RSUExampleScenario3.node[44].veinsmobility acceleration ETV
vector 226 RSUExampleScenario3.node[44].veinsmobility co2emission ETV
vector 227 RSUExampleScenario3.node[45].veinsmobility speed ETV
vector 228 RSUExampleScenario3.node[45].veinsmobility acceleration ETV
vector 229 RSUExampleScenario3.node[45].veinsmobility co2emission ETV
vector 230 RSUExampleScenario3.node[46].veinsmobility posx ETV
vector 231 RSUExampleScenario3.node[46].veinsmobility posy ETV
vector 232 RSUExampleScenario3.node[46].veinsmobility speed ETV
vector 233 RSUExampleScenario3.node[47].veinsmobility posx ETV
vector 234 RSUExampleScenario3.node[47].veinsmobility posy ETV
vector 235 RSUExampleScenario3.node[48].veinsmobility posx ETV
vector 236 RSUExampleScenario3.node[48].veinsmobility posy ETV
vector 237 RSUExampleScenario3.node[46].veinsmobility acceleration ETV
vector 238 RSUExampleScenario3.node[46].veinsmobility co2emission ETV
vector 239 RSUExampleScenario3.node[47].veinsmobility speed ETV
vector 240 RSUExampleScenario3.node[48].veinsmobility speed ETV
vector 241 RSUExampleScenario3.node[49].veinsmobility posx ETV
vector 242 RSUExampleScenario3.node[49].veinsmobility posy ETV
vector 243 RSUExampleScenario3.node[47].veinsmobility acceleration ETV
vector 244 RSUExampleScenario3.node[47].veinsmobility co2emission ETV
vector 245 RSUExampleScenario3.node[48].veinsmobility acceleration ETV
vector 246 RSUExampleScenario3.node[48].veinsmobility co2emission ETV
vector 247 RSUExampleScenario3.node[50].veinsmobility posx ETV
vector 248 RSUExampleScenario3.node[50].veinsmobility posy ETV
vector 249 RSUExampleScenario3.node[49].veinsmobility speed ETV
vector 250 RSUExampleScenario3.node[49].veinsmobility acceleration ETV
vector 251 RSUExampleScenario3.node[49].veinsmobility co2emission ETV
vector 252 RSUExampleScenario3.node[50].veinsmobility speed ETV
vector 253 RSUExampleScenario3.node[51].veinsmobility posx ETV
vector 254 RSUExampleScenario3.node[51].veinsmobility posy ETV
vector 255 RSUExampleScenario3.node[50].veinsmobility acceleration ETV
vector 256 RSUExampleScenario3.node[50].veinsmobility co2emission ETV
vector 257 RSUExampleScenario3.node[51].veinsmobility speed ETV
vector 258 RSUExampleScenario3.node[51].veinsmobility acceleration ETV
vector 259 RSUExampleScenario3.node[51].veinsmobility co2emission ETV
vector 260 RSUExampleScenario3.node[52].veinsmobility posx ETV
vector 261 RSUExampleScenario3.node[52].veinsmobility posy ETV
vector 262 RSUExampleScenario3.node[53].veinsmobility posx ETV
vector 263 RSUExampleScenario3.node[53].veinsmobility posy ETV
vector 264 RSUExampleScenario3.node[52].veinsmobility speed ETV
vector 265 RSUExampleScenario3.node[52].veinsmobility acceleration ETV
vector 266 RSUExampleScenario3.node[52].veinsmobility co2emission ETV
vector 267 RSUExampleScenario3.node[53].veinsmobility speed ETV
vector 268 RSUExampleScenario3.node[53].veinsmobility acceleration ETV
vector 269 RSUExampleScenario3.node[53].veinsmobility co2emission ETV
vector 270 RSUExampleScenario3.node[54].veinsmobility posx ETV
vector 271 RSUExampleScenario3.node[54].veinsmobility posy ETV
vector 272 RSUExampleScenario3.node[55].veinsmobility posx ETV
vector 273 RSUExampleScenario3.node[55].veinsmobility posy ETV
vector 274 RSUExampleScenario3.node[54].veinsmobility speed ETV
vector 275 RSUExampleScenario3.node[54].veinsmobility acceleration ETV
vector 276 RSUExampleScenario3.node[54].veinsmobility co2emission ETV
vector 277 RSUExampleScenario3.node[55].veinsmobility speed ETV
vector 278 RSUExampleScenario3.node[55].veinsmobility acceleration ETV
vector 279 RSUExampleScenario3.node[55].veinsmobility co2emission ETV
vector 280 RSUExampleScenario3.node[56].veinsmobility posx ETV
vector 281 RSUExampleScenario3.node[56].veinsmobility posy ETV
vector 282 RSUExampleScenario3.node[56].veinsmobility speed ETV
vector 283 RSUExampleScenario3.node[57].veinsmobility posx ETV
vector 284 RSUExampleScenario3.node[57].veinsmobility posy ETV
vector 285 RSUExampleScenario3.node[56].veinsmobility acceleration ETV
vector 286 RSUExampleScenario3.node[56].veinsmobility co2emission ETV
vector 287 RSUExampleScenario3.node[57].veinsmobility speed ETV
vector 288 RSUExampleScenario3.node[57].veinsmobility acceleration ETV
vector 289 RSUExampleScenario3.node[57].veinsmobility co2emission ETV
vector 290 RSUExampleScenario3.node[58].veinsmobility posx ETV
vector 291 RSUExampleScenario3.node[58].veinsmobility posy ETV
vector 292 RSUExampleScenario3.node[59].veinsmobility posx ETV
vector 293 RSUExampleScenario3.node[59].veinsmobility posy ETV
vector 294 RSUExampleScenario3.node[58].veinsmobility speed ETV
vector 295 RSUExampleScenario3.node[60].veinsmobility posx ETV
vector 296 RSUExampleScenario3.node[60].veinsmobility posy ETV
vector 297 RSUExampleScenario3.node[58].veinsmobility acceleration ETV
vector 298 RSUExampleScenario3.node[58].veinsmobility co2emission ETV
vector 299 RSUExampleScenario3.node[59].veinsmobility speed ETV
vector 300 RSUExampleScenario3.node[59].veinsmobility acceleration ETV
vector 301 RSUExampleScenario3.node[59].veinsmobility co2emission ETV
vector 302 RSUExampleScenario3.node[60].veinsmobility speed ETV
vector 303 RSUExampleScenario3.node[61].veinsmobility posx ETV
vector 304 RSUExampleScenario3.node[61].veinsmobility posy ETV
vector 305 RSUExampleScenario3.node[60].veinsmobility acceleration ETV
vector 306 RSUExampleScenario3.node[60].veinsmobility co2emission ETV
vector 307 RSUExampleScenario3.node[61].veinsmobility speed ETV
vector 308 RSUExampleScenario3.node[61].veinsmobility acceleration ETV
vector 309 RSUExampleScenario3.node[61].veinsmobility co2emission ETV
vector 310 RSUExampleScenario3.node[62].veinsmobility posx ETV
vector 311 RSUExampleScenario3.node[62].veinsmobility posy ETV
vector 312 RSUExampleScenario3.node[62].veinsmobility speed ETV
vector 313 RSUExampleScenario3.node[62].veinsmobility acceleration ETV
vector 314 RSUExampleScenario3.node[62].veinsmobility co2emission ETV
vector 315 RSUExampleScenario3.node[63].veinsmobility posx ETV
vector 316 RSUExampleScenario3.node[63].veinsmobility posy ETV
vector 317 RSUExampleScenario3.node[64].veinsmobility posx ETV
vector 318 RSUExampleScenario3.node[64].veinsmobility posy ETV
vector 319 RSUExampleScenario3.node[63].veinsmobility speed ETV
vector 320 RSUExampleScenario3.node[65].veinsmobility posx ETV
vector 321 RSUExampleScenario3.node[65].veinsmobility posy ETV
vector 322 RSUExampleScenario3.node[66].veinsmobility posx ETV
vector 323 RSUExampleScenario3.node[66].veinsmobility posy ETV
vector 324 RSUExampleScenario3.node[67].veinsmobility posx ETV
vector 325 RSUExampleScenario3.node[67].veinsmobility posy ETV
vector 326 RSUExampleScenario3.node[63].veinsmobility acceleration ETV
vector 327 RSUExampleScenario3.node[63].veinsmobility co2emission ETV
vector 328 RSUExampleScenario3.node[64].veinsmobility speed ETV
vector 329 RSUExampleScenario3.node[64].veinsmobility acceleration ETV
vector 330 RSUExampleScenario3.node[64].veinsmobility co2emission ETV
vector 331 RSUExampleScenario3.node[65].veinsmobility speed ETV
vector 332 RSUExampleScenario3.node[66].veinsmobility speed ETV
vector 333 RSUExampleScenario3.node[67].veinsmobility speed ETV
6	24743 4426 96 1057182 8 170 163 0.12336289893781 14.088458588546 655.80444101548 3548.4568714511
5	29169 4813 96 1057182 8 170 163 -4.5 2.1628665369749 20.56904966112 180.5008682287
2	33982 4506 74 1057182 7 170 164 0 23.684401911818 3494.6579697269 79718.050409835
1	38488 3084 52 1057182 6 170 165 1520.2 1523.4 250874.6 381442940.36
0	41572 4552 52 1057182 6 170 165 30.345687805114 3514.2182781714 283315.9727009 653844982.08122
vector 334 RSUExampleScenario3.node[65].veinsmobility acceleration ETV
vector 335 RSUExampleScenario3.node[65].veinsmobility co2emission ETV
vector 336 RSUExampleScenario3.node[66].veinsmobility acceleration ETV
vector 337 RSUExampleScenario3.node[66].veinsmobility co2emission ETV
vector 338 RSUExampleScenario3.node[67].veinsmobility acceleration ETV
vector 339 RSUExampleScenario3.node[67].veinsmobility co2emission ETV
vector 340 RSUExampleScenario3.node[68].veinsmobility posx ETV
vector 341 RSUExampleScenario3.node[68].veinsmobility posy ETV
vector 342 RSUExampleScenario3.node[69].veinsmobility posx ETV
vector 343 RSUExampleScenario3.node[69].veinsmobility posy ETV
vector 344 RSUExampleScenario3.node[68].veinsmobility speed ETV
vector 345 RSUExampleScenario3.node[68].veinsmobility acceleration ETV
vector 346 RSUExampleScenario3.node[68].veinsmobility co2emission ETV
vector 347 RSUExampleScenario3.node[69].veinsmobility speed ETV
vector 348 RSUExampleScenario3.node[69].veinsmobility acceleration ETV
vector 349 RSUExampleScenario3.node[69].veinsmobility co2emission ETV
vector 350 RSUExampleScenario3.node[70].veinsmobility posx ETV
vector 351 RSUExampleScenario3.node[70].veinsmobility posy ETV
vector 352 RSUExampleScenario3.node[70].veinsmobility speed ETV
vector 353 RSUExampleScenario3.node[71].veinsmobility posx ETV
vector 354 RSUExampleScenario3.node[71].veinsmobility posy ETV
vector 355 RSUExampleScenario3.node[70].veinsmobility acceleration ETV
vector 356 RSUExampleScenario3.node[70].veinsmobility co2emission ETV
vector 357 RSUExampleScenario3.node[71].veinsmobility speed ETV
vector 358 RSUExampleScenario3.node[71].veinsmobility acceleration ETV
vector 359 RSUExampleScenario3.node[71].veinsmobility co2emission ETV
vector 360 RSUExampleScenario3.node[72].veinsmobility posx ETV
vector 361 RSUExampleScenario3.node[72].veinsmobility posy ETV
vector 362 RSUExampleScenario3.node[73].veinsmobility posx ETV
vector 363 RSUExampleScenario3.node[73].veinsmobility posy ETV
vector 364 RSUExampleScenario3.node[72].veinsmobility speed ETV
vector 365 RSUExampleScenario3.node[73].veinsmobility speed ETV
vector 366 RSUExampleScenario3.node[74].veinsmobility posx ETV
vector 367 RSUExampleScenario3.node[74].veinsmobility posy ETV
vector 368 RSUExampleScenario3.node[75].veinsmobility posx ETV
vector 369 RSUExampleScenario3.node[75].veinsmobility posy ETV
vector 370 RSUExampleScenario3.node[72].veinsmobility acceleration ETV
vector 371 RSUExampleScenario3.node[72].veinsmobility co2emission ETV
vector 372 RSUExampleScenario3.node[73].veinsmobility acceleration ETV
vector 373 RSUExampleScenario3.node[73].veinsmobility co2emission ETV
vector 374 RSUExampleScenario3.node[74].veinsmobility speed ETV
vector 375 RSUExampleScenario3.node[75].veinsmobility speed ETV
vector 376 RSUExampleScenario3.node[76].veinsmobility posx ETV
vector 377 RSUExampleScenario3.node[76].veinsmobility posy ETV
vector 378 RSUExampleScenario3.node[74].veinsmobility acceleration ETV
vector 379 RSUExampleScenario3.node[74].veinsmobility co2emission ETV
vector 380 RSUExampleScenario3.node[75].veinsmobility acceleration ETV
vector 381 RSUExampleScenario3.node[75].veinsmobility co2emission ETV
vector 382 RSUExampleScenario3.node[76].veinsmobility speed ETV
9	49385 4765 171 1431799 10 188 179 0.973 20.624872872935 667.97995735031 4263.0715538053
8	54150 5086 171 1431799 10 188 179 -4.5 2.3233937261882 12.24025591946 216.03456661633
7	59236 4798 142 1431799 9 188 180 0 30.996727266022 3245.7141943973 73829.220120423
4	64034 4304 96 1431799 8 188 181 1520.2 3022.1929390116 346730.10629719 707685595.14887
3	68338 4211 96 1431799 8 188 181 30.778528879891 1779.8 259266.16202716 429410122.39133
vector 383 RSUExampleScenario3.node[77].veinsmobility posx ETV
vector 384 RSUExampleScenario3.node[77].veinsmobility posy ETV
vector 385 RSUExampleScenario3.node[76].veinsmobility acceleration ETV
vector 386 RSUExampleScenario3.node[76].veinsmobility co2emission ETV
vector 387 RSUExampleScenario3.node[77].veinsmobility speed ETV
vector 388 RSUExampleScenario3.node[77].veinsmobility acceleration ETV
vector 389 RSUExampleScenario3.node[77].veinsmobility co2emission ETV
39	73021 4832 1596 1499981 23 191 169 -0.81439103961918 17.846678733118 612.58870273496 3741.004187605
38	77853 5294 1596 1499981 23 191 169 -3.622925798211 2.2185223165015 11.710335169866 148.77241394302
35	83147 4960 1298 1499981 22 191 170 1.9338606172974 30.183800646669 3234.7416622254 70967.928353049
30	88107 4327 994 1499981 21 191 171 1520.2 3010.5809717236 332165.67488664 686744509.3973
29	92434 4129 994 1499981 21 191 171 31.151819963952 1779.8 240974.152758 396120779.7356
vector 390 RSUExampleScenario3.node[78].veinsmobility posx ETV
vector 391 RSUExampleScenario3.node[78].veinsmobility posy ETV
vector 392 RSUExampleScenario3.node[79].veinsmobility posx ETV
vector 393 RSUExampleScenario3.node[79].veinsmobility posy ETV
vector 394 RSUExampleScenario3.node[78].veinsmobility speed ETV
vector 395 RSUExampleScenario3.node[80].veinsmobility posx ETV
vector 396 RSUExampleScenario3.node[80].veinsmobility posy ETV
vector 397 RSUExampleScenario3.node[78].veinsmobility acceleration ETV
vector 398 RSUExampleScenario3.node[78].veinsmobility co2emission ETV
vector 399 RSUExampleScenario3.node[79].veinsmobility speed ETV
33	97210 4763 1298 1570153 22 194 173 0.973 20.988450403352 737.45205512413 5543.8229265169
32	101973 5008 1298 1570153 22 194 173 -4.5 2.3532128357022 31.523242066289 169.16907582633
31	106981 4723 994 1570153 21 194 174 0 34.003689447304 3217.805738033 80993.575021616
24	111704 4598 857 1570153 20 194 175 30.125196098181 1520.2 195668.66520207 263533876.92534
23	116302 4069 857 1570153 20 194 175 1776.6 3494.6390702693 355938.79779598 763706425.0968
vector 400 RSUExampleScenario3.node[81].veinsmobility posx ETV
vector 401 RSUExampleScenario3.node[81].veinsmobility posy ETV
vector 402 RSUExampleScenario3.node[79].veinsmobility acceleration ETV
vector 403 RSUExampleScenario3.node[79].veinsmobility co2emission ETV
vector 404 RSUExampleScenario3.node[80].veinsmobility speed ETV
vector 405 RSUExampleScenario3.node[80].veinsmobility acceleration ETV
vector 406 RSUExampleScenario3.node[80].veinsmobility co2emission ETV
vector 407 RSUExampleScenario3.node[81].veinsmobility speed ETV
vector 408 RSUExampleScenario3.node[82].veinsmobility posx ETV
vector 409 RSUExampleScenario3.node[82].veinsmobility posy ETV
vector 410 RSUExampleScenario3.node[81].veinsmobility acceleration ETV
vector 411 RSUExampleScenario3.node[81].veinsmobility co2emission ETV
106	121174 4383 33925 1644774 54 197 144 0.973 15.089443770674 627.64655353744 3426.892087887
105	125557 4741 33925 1644774 54 197 144 -2.632886890912 2.1402140960377 22.813056442908 61.365418729903
100	130298 4444 31727 1644774 53 197 145 2.3463259991494 25.232027462452 3492.0180330481 86210.781309295
98	134742 3034 29558 1644774 52 197 146 1526.6 1529.8 223074.23919321 340836770.88736
97	137776 4311 29558 1644774 52 197 146 40.154255005397 3519.9 270351.33034261 660302297.46471
vector 412 RSUExampleScenario3.node[83].veinsmobility posx ETV
vector 413 RSUExampleScenario3.node[83].veinsmobility posy ETV
vector 414 RSUExampleScenario3.node[82].veinsmobility speed ETV
vector 415 RSUExampleScenario3.node[82].veinsmobility acceleration ETV
vector 416 RSUExampleScenario3.node[82].veinsmobility co2emission ETV
vector 417 RSUExampleScenario3.node[83].veinsmobility speed ETV
86	142482 4553 17987 1696708 45 199 155 -1.0924668325446 20.419909373371 651.24841780651 4711.5198395155
85	147035 4901 17987 1696708 45 199 155 -4.5 2.2307737279847 25.82172246384 108.44595477174
84	151936 4605 16448 1696708 44 199 156 4.1748370939776 31.729288157637 3248.8598150419 76439.438439429
76	156541 4106 15035 1696708 43 199 157 31.197078821993 1529.8 166021.55348591 217247819.95049
75	160647 3794 15035 1696708 43 199 157 30.906373427484 1779.8 228408.00039365 376007910.96682
vector 418 RSUExampleScenario3.node[84].veinsmobility posx ETV
vector 419 RSUExampleScenario3.node[84].veinsmobility posy ETV
vector 420 RSUExampleScenario3.node[83].veinsmobility acceleration ETV
vector 421 RSUExampleScenario3.node[83].veinsmobility co2emission ETV
vector 422 RSUExampleScenario3.node[84].veinsmobility speed ETV
vector 423 RSUExampleScenario3.node[84].veinsmobility acceleration ETV
vector 424 RSUExampleScenario3.node[84].veinsmobility co2emission ETV
26	164913 5347 857 1854493 20 205 186 0.973 16.680147221485 637.98220629289 3423.7756864689
25	170260 5832 857 1854493 20 205 186 -3.3409286872821 2.1702721129195 25.00799653947 110.53535956542
22	176092 5493 743 1854493 19 205 187 9.8163379059329e-05 28.271850532101 3230.810569551 68442.678532358
21	181585 4907 627 1854493 18 205 188 30.473277350838 1520.2 203341.99658952 268235424.95808
20	186492 4415 627 1854493 18 205 188 1776.6 3511.6499494749 388753.35892159 851184398.89591
vector 425 RSUExampleScenario3.node[85].veinsmobility posx ETV
vector 426 RSUExampleScenario3.node[85].veinsmobility posy ETV
vector 427 RSUExampleScenario3.node[85].veinsmobility speed ETV
54	191097 5122 5400 1907367 32 207 176 0.973 18.00616994437 600.29294038759 3228.0469213866
53	196219 5563 5400 1907367 32 207 176 -4.5 2.1666172607616 11.788402515825 136.43124557839
51	201782 5207 4702 1907367 31 207 177 2.5321421087617 27.823382725644 3228.608573166 66670.616947737
46	206989 4601 4128 1907367 30 207 178 1526.6 3014.6240324449 349734.09417625 730633391.82096
45	211590 4309 4128 1907367 30 207 178 1779.8 3519.8745299931 383957.75938062 887598810.79585
vector 428 RSUExampleScenario3.node[85].veinsmobility acceleration ETV
vector 429 RSUExampleScenario3.node[85].veinsmobility co2emission ETV
64	216040 5035 8333 1933787 36 208 173 0.973 18.749178115512 610.21030202953 3372.0738557514
63	221075 5481 8333 1933787 36 208 173 -4.5 2.1118558089552 12.064295230559 154.01932888303
62	226556 5130 7572 1933787 35 208 174 2.6058179548586 28.351947155032 3230.9966674227 68041.077083068
61	231686 4526 6813 1933787 34 208 175 33.749391566126 1520.2 189564.33938756 248009165.61142
60	236212 4240 6813 1933787 34 208 175 30.176720350658 1773.4 243607.03066505 397841770.79523
78	240452 4847 15035 1933787 43 208 166 0.973 18.009907174181 622.13413078391 3719.4468247418
77	245299 5290 15035 1933787 43 208 166 -4.4930127398499 2.2091479870118 11.938329654507 140.96737441248
74	250589 4941 13646 1933787 42 208 167 3.3724050041164 29.706370482441 3235.5541113636 70832.384967811
71	255530 4369 12585 1933787 41 208 168 38.934354449797 1526.6 183478.10893286 241421805.31045
70	259899 4106 12585 1933787 41 208 168 1773.4 3519.5331623273 361862.03097842 836129644.7722
vector 430 RSUExampleScenario3.node[86].veinsmobility posx ETV
vector 431 RSUExampleScenario3.node[86].veinsmobility posy ETV
vector 432 RSUExampleScenario3.node[87].veinsmobility posx ETV
vector 433 RSUExampleScenario3.node[87].veinsmobility posy ETV
vector 434 RSUExampleScenario3.node[86].veinsmobility speed ETV
vector 435 RSUExampleScenario3.node[86].veinsmobility acceleration ETV
vector 436 RSUExampleScenario3.node[86].veinsmobility co2emission ETV
vector 437 RSUExampleScenario3.node[87].veinsmobility speed ETV
vector 438 RSUExampleScenario3.node[88].veinsmobility posx ETV
vector 439 RSUExampleScenario3.node[88].veinsmobility posy ETV
vector 440 RSUExampleScenario3.node[87].veinsmobility acceleration ETV
vector 441 RSUExampleScenario3.node[87].veinsmobility co2emission ETV
59	264793 5211 6110 2036049 33 212 180 0.973 17.009088383359 622.38511183133 3475.0842569568
58	270004 5675 6110 2036049 33 212 180 -4.5 2.1896844096086 11.684419836567 188.54471948769
57	275679 5344 5400 2036049 32 212 181 9.9716862332635e-05 27.909868417931 3245.9441934167 66863.273445607
50	281023 4731 4702 2036049 31 212 182 28.894067630298 1529.8 198907.15462376 262472035.75769
49	285754 4428 4702 2036049 31 212 182 1770.2 3519.8251687087 389835.11184704 895259362.86139
vector 442 RSUExampleScenario3.node[88].veinsmobility speed ETV
37	290246 5569 1596 2062122 23 213 191 0.973 15.04839762741 577.43552309586 2562.7293453501
36	295815 6024 1596 2062122 23 213 191 -4.5 2.0991332937102 9.9903575295989 126.06817318607
34	301839 5641 1298 2062122 22 213 192 3.0548019321063 25.346616600353 3239.6901986934 61557.00303149
28	307480 4985 994 2062122 21 213 193 34.647585902939 1529.8 208838.24855989 273708559.60668
27	312465 4651 994 2062122 21 213 193 1770.2 3519.6531107819 413440.88951951 948837625.6148
vector 443 RSUExampleScenario3.node[88].veinsmobility acceleration ETV
vector 444 RSUExampleScenario3.node[88].veinsmobility co2emission ETV
19	317257 5735 545 2087902 17 214 198 0.973 14.423044291158 599.29399909589 2671.7569112587
18	322992 6246 545 2087902 17 214 198 -3.2968109142062 2.1082221875782 22.837464056552 98.032929014488
15	329238 5825 463 2087902 16 214 199 0.15182410018086 25.355648605214 3233.1667147996 61769.524697308
13	335063 5201 381 2087902 15 214 200 30.125513097852 1520.2 213777.98281345 279748736.00379
12	340264 4727 381 2087902 15 214 200 1776.6 3513.45630867 416394.11837101 918852021.73002
vector 445 RSUExampleScenario3.node[89].veinsmobility posx ETV
vector 446 RSUExampleScenario3.node[89].veinsmobility posy ETV
vector 447 RSUExampleScenario3.node[89].veinsmobility speed ETV
vector 448 RSUExampleScenario3.node[89].veinsmobility acceleration ETV
vector 449 RSUExampleScenario3.node[89].veinsmobility co2emission ETV
vector 450 RSUExampleScenario3.node[90].veinsmobility posx ETV
vector 451 RSUExampleScenario3.node[90].veinsmobility posy ETV
vector 452 RSUExampleScenario3.node[91].veinsmobility posx ETV
vector 453 RSUExampleScenario3.node[91].veinsmobility posy ETV
44	345574 5640 3684 2265104 29 221 193 0.973 14.677244571703 584.04455982017 2551.4105206797
43	351214 6127 3684 2265104 29 221 193 -3.79 2.24285772159 22.103341810839 77.732277314228
42	357341 5724 3240 2265104 28 221 194 2.7670593678813 24.992993423905 3241.2679731637 61248.929150734
41	363065 5101 2796 2265104 27 221 195 1520.2 3019.8262780761 389790.20081918 830128344.51327
40	368166 4682 2796 2265104 27 221 195 1770.2 3512.0012630264 407207.70271734 902821198.28958
vector 454 RSUExampleScenario3.node[90].veinsmobility speed ETV
vector 455 RSUExampleScenario3.node[91].veinsmobility speed ETV
vector 456 RSUExampleScenario3.node[90].veinsmobility acceleration ETV
vector 457 RSUExampleScenario3.node[90].veinsmobility co2emission ETV
vector 458 RSUExampleScenario3.node[91].veinsmobility acceleration ETV
vector 459 RSUExampleScenario3.node[91].veinsmobility co2emission ETV
vector 460 RSUExampleScenario3.node[92].veinsmobility posx ETV
vector 461 RSUExampleScenario3.node[92].veinsmobility posy ETV
vector 462 RSUExampleScenario3.node[92].veinsmobility speed ETV
vector 463 RSUExampleScenario3.node[92].veinsmobility acceleration ETV
vector 464 RSUExampleScenario3.node[92].veinsmobility co2emission ETV
109	373589 5188 38618 2422292 56 227 172 0.973 17.1141449732 620.03374311533 3492.7200255128
108	378777 5703 38618 2422292 56 227 172 -1.612259023541 2.3503979147272 25.826147792615 71.619103348286
107	384480 5342 36299 2422292 55 227 173 3.2334600201574 29.122394856227 3232.9754759757 69277.193971
102	389822 4789 33925 2422292 54 227 174 1523.4 3019.5323195665 345451.24047448 731250626.79585
101	394611 4418 33925 2422292 54 227 174 1770.2 3503.7097591433 361205.60566192 794909249.7946
94	399029 5289 26143 2422292 50 227 178 0.973 15.239845137076 598.38696058889 3033.1986224593
93	404318 5729 26143 2422292 50 227 178 -4.2898604231139 2.1959581984486 23.405238838479 87.790536343465
92	410047 5337 24458 2422292 49 227 179 3.5348542018128 26.963920995552 3216.871865525 65384.04365576
91	415384 4751 22729 2422292 48 227 180 30.764664697425 1520.2 189086.57848486 245182031.88031
90	420135 4385 22729 2422292 48 227 180 1776.6 3498.173680479 376283.59959699 833615934.5086
vector 465 RSUExampleScenario3.node[93].veinsmobility posx ETV
vector 466 RSUExampleScenario3.node[93].veinsmobility posy ETV
vector 467 RSUExampleScenario3.node[93].veinsmobility speed ETV
vector 468 RSUExampleScenario3.node[93].veinsmobility acceleration ETV
vector 469 RSUExampleScenario3.node[93].veinsmobility co2emission ETV
vector 470 RSUExampleScenario3.node[94].veinsmobility posx ETV
vector 471 RSUExampleScenario3.node[94].veinsmobility posy ETV
vector 472 RSUExampleScenario3.node[94].veinsmobility speed ETV
83	425041 5681 16448 2632157 44 235 192 0.973 15.687169458143 574.96655552376 2509.4991569186
82	430722 6151 16448 2632157 44 235 192 -4.5 2.1263867866686 8.9051245642787 130.79804119778
79	436873 5754 15035 2632157 43 235 193 4.0151638505304 25.171958504572 3242.3260273619 61174.460734142
73	442627 5093 13646 2632157 42 235 194 29.605631976018 1529.8 209047.85132728 273489309.47435
72	447720 4754 13646 2632157 42 235 194 1770.2 3518.8397557739 414437.81201932 947643416.71561
134	452474 4987 92998 2632157 74 235 162 0.973 18.091817992025 653.23626550507 4207.4692659696
133	457461 5402 92998 2632157 74 235 162 -3.3004826626288 2.2331190610118 28.521537850999 90.827076549335
132	462863 5070 89427 2632157 73 235 163 2.3135253517871 30.892545442707 3238.8423579435 74058.398745707
129	467933 4556 85849 2632157 72 235 164 30.1 1529.8 172859.37055557 225782075.98074
128	472489 4206 85849 2632157 72 235 164 43.472992577665 1776.6 241439.90405641 398099879.13579
vector 473 RSUExampleScenario3.node[95].veinsmobility posx ETV
vector 474 RSUExampleScenario3.node[95].veinsmobility posy ETV
vector 475 RSUExampleScenario3.node[96].veinsmobility posx ETV
vector 476 RSUExampleScenario3.node[96].veinsmobility posy ETV
vector 477 RSUExampleScenario3.node[94].veinsmobility acceleration ETV
vector 478 RSUExampleScenario3.node[94].veinsmobility co2emission ETV
vector 479 RSUExampleScenario3.node[95].veinsmobility speed ETV
vector 480 RSUExampleScenario3.node[96].veinsmobility speed ETV
vector 481 RSUExampleScenario3.node[95].veinsmobility acceleration ETV
vector 482 RSUExampleScenario3.node[95].veinsmobility co2emission ETV
vector 483 RSUExampleScenario3.node[96].veinsmobility acceleration ETV
vector 484 RSUExampleScenario3.node[96].veinsmobility co2emission ETV
vector 485 RSUExampleScenario3.node[97].veinsmobility posx ETV
vector 486 RSUExampleScenario3.node[97].veinsmobility posy ETV
119	477624 5443 60375 2736765 64 239 176 0.973 16.916605774712 603.93474709907 3098.2025937264
118	483067 5871 60375 2736765 64 239 176 -4.4911912861793 2.0877782846661 24.180679463916 87.558614970021
117	488938 5487 57359 2736765 63 239 177 3.0521943315606 27.35954086642 3229.3954390138 66624.035734409
116	494425 4946 54345 2736765 62 239 178 30.35028635987 1529.8 187144.16373623 243747873.83774
115	499371 4551 54345 2736765 62 239 178 49.938226499703 1779.8 260804.83238218 429257290.08421
vector 487 RSUExampleScenario3.node[97].veinsmobility speed ETV
124	503986 5315 69813 2762940 67 240 174 0.973 17.53655149605 617.57133819404 3525.2500461884
123	509301 5797 69813 2762940 67 240 174 -4.4603578742105 2.0922352279793 23.759197547526 94.92936764229
122	515098 5437 66622 2762940 66 240 175 3.9204626791574 27.758049784151 3227.9789970611 67303.984068562
121	520535 4871 63434 2762940 65 240 176 30.803276662681 1523.4 185054.44470993 240253363.27662
120	525406 4493 63434 2762940 65 240 176 1776.6 3509.109582249 368433.93561664 817961322.23815
vector 488 RSUExampleScenario3.node[97].veinsmobility acceleration ETV
vector 489 RSUExampleScenario3.node[97].veinsmobility co2emission ETV
vector 490 RSUExampleScenario3.node[98].veinsmobility posx ETV
vector 491 RSUExampleScenario3.node[98].veinsmobility posy ETV
vector 492 RSUExampleScenario3.node[98].veinsmobility speed ETV
vector 493 RSUExampleScenario3.node[98].veinsmobility acceleration ETV
vector 494 RSUExampleScenario3.node[98].veinsmobility co2emission ETV
vector 495 RSUExampleScenario3.node[99].veinsmobility posx ETV
vector 496 RSUExampleScenario3.node[99].veinsmobility posy ETV
17	530497 6820 545 2970828 17 248 232 0.973 13.740779421613 555.65827135346 1796.0963285935
16	537317 7420 545 2970828 17 248 232 -2.1314708242565 2.2137334440067 18.111453053667 48.12311473166
14	544737 6867 463 2970828 16 248 233 2.3557329764959 20.501456029175 3243.3539316556 50706.629546364
11	551604 6122 381 2970828 15 248 234 1520.2 3019.9 466796.40266162 991670613.3587
10	557726 5621 381 2970828 15 248 234 1770.2 3515.5787136098 489835.89452854 1089194721.1853
89	563347 6029 19569 2970828 46 248 203 0.973 13.942967422813 564.79599422641 2247.3157492168
88	569376 6554 19569 2970828 46 248 203 -4.5 2.0208347699582 9.2707212303228 112.44135433373
87	575930 6091 17987 2970828 45 248 204 3.0038827248238 23.741848117872 3241.5999091618 57877.826374416
81	582021 5407 16448 2970828 44 248 205 31.946004704108 1526.6 220881.87704487 288750902.05193
80	587428 5037 16448 2970828 44 248 205 1770.2 3519.6476727501 437926.43179098 1001271481.8369
vector 497 RSUExampleScenario3.node[99].veinsmobility speed ETV
vector 498 RSUExampleScenario3.node[100].veinsmobility posx ETV
vector 499 RSUExampleScenario3.node[100].veinsmobility posy ETV
vector 500 RSUExampleScenario3.node[99].veinsmobility acceleration ETV
vector 501 RSUExampleScenario3.node[99].veinsmobility co2emission ETV
vector 502 RSUExampleScenario3.node[100].veinsmobility speed ETV
vector 503 RSUExampleScenario3.node[101].veinsmobility posx ETV
vector 504 RSUExampleScenario3.node[101].veinsmobility posy ETV
vector 505 RSUExampleScenario3.node[100].veinsmobility acceleration ETV
vector 506 RSUExampleScenario3.node[100].veinsmobility co2emission ETV
56	593134 6572 5400 3079508 32 252 221 1.5410378452737 8.4442836392572 463.55686278441 1075.2836298557
55	599706 7147 5400 3079508 32 252 221 -0.13264347094685 2.0333239238616 9.8464746292167 19.46609238072
52	606853 6606 4702 3079508 31 252 222 3.7956313625147 13.701908641749 2994.2524931937 40595.903243812
48	613459 6630 4128 3079508 30 252 223 29.474303071035 3019.0519424715 344003.66952975 702109909.06449
47	620089 4644 4128 3079508 30 252 223 1770.2 1773.4 394873 699214155.16
vector 507 RSUExampleScenario3.node[101].veinsmobility speed ETV
vector 508 RSUExampleScenario3.node[101].veinsmobility acceleration ETV
vector 509 RSUExampleScenario3.node[101].veinsmobility co2emission ETV
vector 510 RSUExampleScenario3.node[102].veinsmobility posx ETV
vector 511 RSUExampleScenario3.node[102].veinsmobility posy ETV
vector 512 RSUExampleScenario3.node[103].veinsmobility posx ETV
vector 513 RSUExampleScenario3.node[103].veinsmobility posy ETV
vector 514 RSUExampleScenario3.node[102].veinsmobility speed ETV
114	625262 5689 51484 3216541 61 257 197 0.973 15.781727649221 738.10979460498 4268.1451341567
113	630951 6052 51484 3216541 61 257 197 -3.674329674649 2.1004891428631 23.386822001731 159.46947913408
112	637003 5730 48664 3216541 60 257 198 0 26.208075152645 3481.6313772185 84846.314001019
111	642733 4411 45778 3216541 59 257 199 1526.6 1529.8 303908.6 464123101.72
110	647144 6184 45778 3216541 59 257 199 49.894189311449 3519.8243502866 365894.69551474 826964112.05367
vector 515 RSUExampleScenario3.node[102].veinsmobility acceleration ETV
vector 516 RSUExampleScenario3.node[102].veinsmobility co2emission ETV
vector 517 RSUExampleScenario3.node[103].veinsmobility speed ETV
153	653536 5307 125141 3245729 82 258 177 0.57203502690584 15.877871043808 732.4799325141 4425.4942431086
152	658843 5706 125141 3245729 82 258 177 -3.796832098957 2.1491876222147 23.282701349978 167.81676893034
149	664549 5421 120647 3245729 81 258 178 0 26.444301779982 3482.1041460294 85992.247345956
146	669970 4010 116364 3245729 80 258 179 1526.6 1529.8 273299.8 417278219
145	673980 5588 116364 3245729 80 258 179 49.908190540012 3519.6625046686 329497.09629771 758700292.53414
vector 518 RSUExampleScenario3.node[103].veinsmobility acceleration ETV
vector 519 RSUExampleScenario3.node[103].veinsmobility co2emission ETV
167	679711 5288 144747 3301108 86 260 175 0.973 14.842087262883 668.2616562582 3538.3836492471
166	684999 5605 144747 3301108 86 260 175 -4.5 2.2539105843468 21.070082157338 185.75975004281
164	690604 5307 139639 3301108 85 260 176 0 23.626562443086 3486.7701286418 79459.560602152
159	695911 3972 134515 3301108 84 260 177 1520.2 1523.4 269091.4 409097120.68
158	699883 5542 134515 3301108 84 260 177 30.125881076602 3507.5215737171 303573.53557843 688217592.23573
vector 520 RSUExampleScenario3.node[104].veinsmobility posx ETV
vector 521 RSUExampleScenario3.node[104].veinsmobility posy ETV
vector 522 RSUExampleScenario3.node[105].veinsmobility posx ETV
vector 523 RSUExampleScenario3.node[105].veinsmobility posy ETV
vector 524 RSUExampleScenario3.node[104].veinsmobility speed ETV
vector 525 RSUExampleScenario3.node[105].veinsmobility speed ETV
vector 526 RSUExampleScenario3.node[106].veinsmobility posx ETV
vector 527 RSUExampleScenario3.node[106].veinsmobility posy ETV
vector 528 RSUExampleScenario3.node[107].veinsmobility posx ETV
vector 529 RSUExampleScenario3.node[107].veinsmobility posy ETV
vector 530 RSUExampleScenario3.node[104].veinsmobility acceleration ETV
vector 531 RSUExampleScenario3.node[104].veinsmobility co2emission ETV
vector 532 RSUExampleScenario3.node[105].veinsmobility acceleration ETV
vector 533 RSUExampleScenario3.node[105].veinsmobility co2emission ETV
vector 534 RSUExampleScenario3.node[106].veinsmobility speed ETV
vector 535 RSUExampleScenario3.node[107].veinsmobility speed ETV
vector 536 RSUExampleScenario3.node[106].veinsmobility acceleration ETV
vector 537 RSUExampleScenario3.node[106].veinsmobility co2emission ETV
vector 538 RSUExampleScenario3.node[107].veinsmobility acceleration ETV
vector 539 RSUExampleScenario3.node[107].veinsmobility co2emission ETV
vector 540 RSUExampleScenario3.node[108].veinsmobility posx ETV
vector 541 RSUExampleScenario3.node[108].veinsmobility posy ETV
vector 542 RSUExampleScenario3.node[109].veinsmobility posx ETV
vector 543 RSUExampleScenario3.node[109].veinsmobility posy ETV
vector 544 RSUExampleScenario3.node[108].veinsmobility speed ETV
vector 545 RSUExampleScenario3.node[109].veinsmobility speed ETV
vector 546 RSUExampleScenario3.node[108].veinsmobility acceleration ETV
vector 547 RSUExampleScenario3.node[108].veinsmobility co2emission ETV
vector 548 RSUExampleScenario3.node[109].veinsmobility acceleration ETV
vector 549 RSUExampleScenario3.node[109].veinsmobility co2emission ETV
vector 550 RSUExampleScenario3.node[110].veinsmobility posx ETV
vector 551 RSUExampleScenario3.node[110].veinsmobility posy ETV
vector 552 RSUExampleScenario3.node[111].veinsmobility posx ETV
vector 553 RSUExampleScenario3.node[111].veinsmobility posy ETV
vector 554 RSUExampleScenario3.node[110].veinsmobility speed ETV
69	707762 6570 11661 3733544 40 275 236 0.973 11.993883864248 635.00042980848 2370.9785953845
68	714332 6848 11661 3733544 40 275 236 -4.5 2.4502750373683 16.919168490128 147.42873512309
67	721180 6453 10764 3733544 39 275 237 0 19.420632290314 3485.8600030302 65921.623508299
66	727633 5006 9867 3733544 38 275 238 1526.6 1529.8 363855.6 556264798
65	732639 7127 9867 3733544 38 275 238 42.351002898436 3519.8750994443 432475.84234599 984063810.39731
vector 555 RSUExampleScenario3.node[110].veinsmobility acceleration ETV
vector 556 RSUExampleScenario3.node[110].veinsmobility co2emission ETV
vector 557 RSUExampleScenario3.node[111].veinsmobility speed ETV
vector 558 RSUExampleScenario3.node[112].veinsmobility posx ETV
vector 559 RSUExampleScenario3.node[112].veinsmobility posy ETV
vector 560 RSUExampleScenario3.node[111].veinsmobility acceleration ETV
vector 561 RSUExampleScenario3.node[111].veinsmobility co2emission ETV
209	740245 5229 281512 3795760 108 277 170 -0.16106395783028 19.51220389023 577.75939108573 3676.2905530417
208	745474 5728 281512 3795760 108 277 170 -3.0853432513149 2.1364612635411 13.290970793174 113.66720108554
207	751202 5386 273896 3795760 107 277 171 2.9988130668973 31.652943299162 3223.5659241419 66221.896024662
204	756588 4722 266382 3795760 106 277 172 1526.6 3009.0084682733 330717.09432725 676461708.30998
203	761310 4603 266382 3795760 106 277 172 1776.6 3519.7502695098 373495.3981245 867143134.19266
vector 562 RSUExampleScenario3.node[113].veinsmobility posx ETV
vector 563 RSUExampleScenario3.node[113].veinsmobility posy ETV
vector 564 RSUExampleScenario3.node[112].veinsmobility speed ETV
vector 565 RSUExampleScenario3.node[112].veinsmobility acceleration ETV
vector 566 RSUExampleScenario3.node[112].veinsmobility co2emission ETV
vector 567 RSUExampleScenario3.node[113].veinsmobility speed ETV
163	766314 5838 134515 3859025 84 279 196 0.973 19.141471320186 621.29341334313 3500.7746068568
162	772152 6196 134515 3859025 84 279 196 -4.5 2.1976788494585 13.174805787499 176.74142026174
157	778348 5858 129796 3859025 83 279 197 0 30.313390478364 3230.076040122 66960.70001298
151	784206 5332 125141 3859025 82 279 198 1526.6 3015.4075008389 374020.53371429 751949305.61404
150	789538 5359 125141 3859025 82 279 198 1779.8 3519.8740676584 420620.52205896 955221086.78536
vector 568 RSUExampleScenario3.node[113].veinsmobility acceleration ETV
vector 569 RSUExampleScenario3.node[113].veinsmobility co2emission ETV
vector 570 RSUExampleScenario3.node[114].veinsmobility posx ETV
vector 571 RSUExampleScenario3.node[114].veinsmobility posy ETV
vector 572 RSUExampleScenario3.node[114].veinsmobility speed ETV
vector 573 RSUExampleScenario3.node[115].veinsmobility posx ETV
vector 574 RSUExampleScenario3.node[115].veinsmobility posy ETV
vector 575 RSUExampleScenario3.node[116].veinsmobility posx ETV
vector 576 RSUExampleScenario3.node[116].veinsmobility posy ETV
vector 577 RSUExampleScenario3.node[114].veinsmobility acceleration ETV
vector 578 RSUExampleScenario3.node[114].veinsmobility co2emission ETV
vector 579 RSUExampleScenario3.node[115].veinsmobility speed ETV
vector 580 RSUExampleScenario3.node[116].veinsmobility speed ETV
vector 581 RSUExampleScenario3.node[117].veinsmobility posx ETV
vector 582 RSUExampleScenario3.node[117].veinsmobility posy ETV
vector 583 RSUExampleScenario3.node[115].veinsmobility acceleration ETV
vector 584 RSUExampleScenario3.node[115].veinsmobility co2emission ETV
vector 585 RSUExampleScenario3.node[116].veinsmobility acceleration ETV
vector 586 RSUExampleScenario3.node[116].veinsmobility co2emission ETV
vector 587 RSUExampleScenario3.node[117].veinsmobility speed ETV
269	796241 4712 535962 4083570 135 286 152 0.973 20.933102439264 670.03224581538 4930.9934127895
268	800953 5082 535962 4083570 135 286 152 -4.5 2.1686545892083 14.084967113168 187.61865495187
267	806035 4848 524461 4083570 134 286 153 2.7371560482118 32.700814428065 3223.6403873767 77369.327319732
263	810883 4310 513098 4083570 133 286 154 40.990078141494 1523.4 168612.54747523 221809262.07937
262	815193 4083 513098 4083570 133 286 154 30.249101647973 1773.4 212300.51137171 346689906.94048
vector 588 RSUExampleScenario3.node[117].veinsmobility acceleration ETV
vector 589 RSUExampleScenario3.node[117].veinsmobility co2emission ETV
vector 590 RSUExampleScenario3.node[118].veinsmobility posx ETV
vector 591 RSUExampleScenario3.node[118].veinsmobility posy ETV
vector 592 RSUExampleScenario3.node[118].veinsmobility speed ETV
vector 593 RSUExampleScenario3.node[118].veinsmobility acceleration ETV
vector 594 RSUExampleScenario3.node[118].veinsmobility co2emission ETV
169	819755 6277 144747 4280995 86 292 207 0.973 17.333971135094 639.27005640766 3386.3835281454
168	826032 6841 144747 4280995 86 292 207 -3.2843153707324 2.1040146101359 11.821631238266 149.55614783153
165	832873 6429 139639 4280995 85 292 208 0 28.15789793699 3247.416457969 65859.988446784
161	839302 5655 134515 4280995 84 292 209 28.461927739872 1529.8 241120.6789579 327402946.8008
160	844957 5654 134515 4280995 84 292 209 1770.2 3519.8228979686 439134.12597374 985305932.84075
vector 595 RSUExampleScenario3.node[119].veinsmobility posx ETV
vector 596 RSUExampleScenario3.node[119].veinsmobility posy ETV
vector 597 RSUExampleScenario3.node[120].veinsmobility posx ETV
vector 598 RSUExampleScenario3.node[120].veinsmobility posy ETV
vector 599 RSUExampleScenario3.node[119].veinsmobility speed ETV
vector 600 RSUExampleScenario3.node[119].veinsmobility acceleration ETV
vector 601 RSUExampleScenario3.node[119].veinsmobility co2emission ETV
vector 602 RSUExampleScenario3.node[120].veinsmobility speed ETV
vector 603 RSUExampleScenario3.node[120].veinsmobility acceleration ETV
vector 604 RSUExampleScenario3.node[120].veinsmobility co2emission ETV
vector 605 RSUExampleScenario3.node[121].veinsmobility posx ETV
vector 606 RSUExampleScenario3.node[121].veinsmobility posy ETV
vector 607 RSUExampleScenario3.node[121].veinsmobility speed ETV
191	851476 6094 223888 4481157 100 298 199 0.973 16.626937595492 623.70649425976 3071.9121539656
190	857570 6541 223888 4481157 100 298 199 -4.5 2.2849032171098 11.411752750819 213.20685581978
187	864111 6148 217370 4481157 99 298 200 0 27.030564527092 3243.9482676895 65121.423592028
180	870259 5603 210751 4481157 98 298 201 1520.2 3019.2737286692 387272.24387005 794668615.49881
179	875862 5383 210751 4481157 98 298 201 30.125256541533 1779.8 288451.67747689 477275056.04152
vector 608 RSUExampleScenario3.node[122].veinsmobility posx ETV
vector 609 RSUExampleScenario3.node[122].veinsmobility posy ETV
vector 610 RSUExampleScenario3.node[121].veinsmobility acceleration ETV
vector 611 RSUExampleScenario3.node[121].veinsmobility co2emission ETV
vector 612 RSUExampleScenario3.node[123].veinsmobility posx ETV
vector 613 RSUExampleScenario3.node[123].veinsmobility posy ETV
vector 614 RSUExampleScenario3.node[124].veinsmobility posx ETV
vector 615 RSUExampleScenario3.node[124].veinsmobility posy ETV
vector 616 RSUExampleScenario3.node[122].veinsmobility speed ETV
vector 617 RSUExampleScenario3.node[122].veinsmobility acceleration ETV
vector 618 RSUExampleScenario3.node[122].veinsmobility co2emission ETV
vector 619 RSUExampleScenario3.node[123].veinsmobility speed ETV
vector 620 RSUExampleScenario3.node[124].veinsmobility speed ETV
vector 621 RSUExampleScenario3.node[123].veinsmobility acceleration ETV
vector 622 RSUExampleScenario3.node[123].veinsmobility co2emission ETV
vector 623 RSUExampleScenario3.node[124].veinsmobility acceleration ETV
vector 624 RSUExampleScenario3.node[124].veinsmobility co2emission ETV
vector 625 RSUExampleScenario3.node[125].veinsmobility posx ETV
vector 626 RSUExampleScenario3.node[125].veinsmobility posy ETV
vector 627 RSUExampleScenario3.node[125].veinsmobility speed ETV
vector 628 RSUExampleScenario3.node[125].veinsmobility acceleration ETV
vector 629 RSUExampleScenario3.node[125].veinsmobility co2emission ETV
vector 630 RSUExampleScenario3.node[126].veinsmobility posx ETV
vector 631 RSUExampleScenario3.node[126].veinsmobility posy ETV
174	882860 6672 165738 4754527 90 306 217 0.973 15.577807970674 614.64825852382 2681.7572625703
173	889532 7307 165738 4754527 90 306 217 -2.3552950132738 2.2682693216065 21.626525767255 86.912713497768
172	896839 6854 160277 4754527 89 306 218 0 25.341861795477 3242.0326098409 61265.233055749
171	903693 6254 154937 4754527 88 306 219 30.764325468333 1520.2 241648.58828081 319853354.18771
170	909947 5613 154937 4754527 88 306 219 1776.6 3524.6506128555 451011.32093479 983283843.56725
259	915560 5464 491300 4754527 131 306 176 0.973 19.121314768314 645.08351974851 3707.44583513
258	921024 5853 491300 4754527 131 306 176 -4.4907149066807 2.2463233920544 25.431074002954 139.04091357328
257	926877 5492 480459 4754527 130 306 177 0 29.319379015345 3229.1519552183 70849.636887982
254	932369 5086 469337 4754527 129 306 178 1523.4 3019.0380324348 350326.73723244 735653732.28324
253	937455 4732 469337 4754527 129 306 178 1770.2 3499.2630287341 367535.53864826 803873487.66831
vector 632 RSUExampleScenario3.node[126].veinsmobility speed ETV
184	942252 6505 217370 4789412 99 307 209 0.973 14.401101861338 576.90215876453 2297.9327688493
183	948757 7076 217370 4789412 99 307 209 -3.7346112071658 2.2929247309873 8.9840574048183 125.86987142616
181	955833 6614 210751 4789412 98 307 210 0.57295569673657 23.84431328644 3232.9361372045 57406.459134933
176	962447 5885 204388 4789412 97 307 211 28.045541623238 1523.4 229391.95168308 301092361.88872
175	968332 5576 204388 4789412 97 307 211 30.465183978388 1770.2 299634.13962572 490711685.52204
vector 633 RSUExampleScenario3.node[126].veinsmobility acceleration ETV
vector 634 RSUExampleScenario3.node[126].veinsmobility co2emission ETV
196	974051 6483 237453 4855513 102 309 208 0.973 13.999401905781 591.06578634397 2377.5571569595
195	980534 7060 237453 4855513 102 309 208 -3.0226430167353 2.1120178814465 20.929395353149 86.076809012166
192	987594 6607 230803 4855513 101 309 209 0.056658964144095 24.35508356488 3252.7391201105 59137.39969026
189	994201 5947 223888 4855513 100 309 210 30.608685269372 1529.8 226785.71485469 298643027.23428
188	1000148 5465 223888 4855513 100 309 210 25.475470979669 1779.8 308895.06646324 510056726.59385
vector 635 RSUExampleScenario3.node[127].veinsmobility posx ETV
vector 636 RSUExampleScenario3.node[127].veinsmobility posy ETV
vector 637 RSUExampleScenario3.node[127].veinsmobility speed ETV
vector 638 RSUExampleScenario3.node[128].veinsmobility posx ETV
vector 639 RSUExampleScenario3.node[128].veinsmobility posy ETV
vector 640 RSUExampleScenario3.node[127].veinsmobility acceleration ETV
vector 641 RSUExampleScenario3.node[127].veinsmobility co2emission ETV
306	1006077 4947 791507 4953727 154 312 159 0.973 20.403997581545 659.71394331432 4467.6448923797
305	1011024 5410 791507 4953727 154 312 159 -3.66406669662 2.2015080971015 28.397328748761 91.771687365878
302	1016434 5090 776313 4953727 153 312 160 3.1641269513414 31.640224964885 3223.8677672974 75213.247282719
296	1021524 4584 761015 4953727 152 312 161 30.475904602039 1523.4 170014.50928975 221688439.17435
295	1026108 4230 761015 4953727 152 312 161 1776.6 3503.0684329766 334654.92402768 736784531.87099
vector 642 RSUExampleScenario3.node[128].veinsmobility speed ETV
vector 643 RSUExampleScenario3.node[129].veinsmobility posx ETV
vector 644 RSUExampleScenario3.node[129].veinsmobility posy ETV
vector 645 RSUExampleScenario3.node[128].veinsmobility acceleration ETV
vector 646 RSUExampleScenario3.node[128].veinsmobility co2emission ETV
vector 647 RSUExampleScenario3.node[129].veinsmobility speed ETV
vector 648 RSUExampleScenario3.node[129].veinsmobility acceleration ETV
vector 649 RSUExampleScenario3.node[129].veinsmobility co2emission ETV
vector 650 RSUExampleScenario3.node[130].veinsmobility posx ETV
vector 651 RSUExampleScenario3.node[130].veinsmobility posy ETV
vector 652 RSUExampleScenario3.node[130].veinsmobility speed ETV
238	1031075 6126 418057 5193205 124 319 196 0.973 15.290134169701 574.54279486247 2513.7881938223
237	1037201 6658 418057 5193205 124 319 196 -4.4756734384737 2.1675393770332 10.581442504709 118.55166157007
232	1043859 6243 408647 5193205 123 319 197 2.2138735380461 24.87508485458 3235.8985986963 60075.955069523
231	1050102 5569 399167 5193205 122 319 198 27.311383214287 1520.2 213059.11215065 278127697.75597
230	1055671 5210 399167 5193205 122 319 198 30.1 1773.4 277742.48581959 453820869.21169
186	1060881 6904 217370 5193205 99 319 221 0.973 13.43541107502 570.01065575918 2068.8677520833
185	1067785 7487 217370 5193205 99 319 221 -3.6259060639063 2.0939292138536 8.2561559618874 112.62857730545
182	1075272 7008 210751 5193205 98 319 222 1.3019846281493 22.543489109408 3236.0931399465 54191.318441261
178	1082280 6228 204388 5193205 97 319 223 36.595830245426 1526.6 244090.59873114 321616675.64368
177	1088508 5901 204388 5193205 97 319 223 1770.2 3519.3847100856 472868.71894548 1071286918.3526
vector 653 RSUExampleScenario3.node[130].veinsmobility acceleration ETV
vector 654 RSUExampleScenario3.node[130].veinsmobility co2emission ETV
104	1094552 8110 33925 5228391 54 320 267 0.973 12.578672894955 592.28243303106 1812.0954782205
103	1102662 8763 33925 5228391 54 320 267 -2.819139799116 2.1691400608188 16.629458231627 72.030963778887
99	1111425 7932 31727 5228391 53 320 268 0 20.089911381414 3244.6825081336 49623.054231626
96	1119357 7325 29558 5228391 52 320 269 30.60695939717 1529.8 298449.67905721 397611427.91803
95	1126682 6541 29558 5228391 52 320 269 31.347084889821 1779.8 401284.71775849 666791729.12546
141	1133223 7075 104271 5228391 77 320 244 0.973 10.450402579481 544.52128125122 1742.0582206995
140	1140298 7434 104271 5228391 77 320 244 -4.4131010601739 2.2919822666096 12.768135895314 110.2079614087
137	1147732 7025 100460 5228391 76 320 245 0 16.534650991903 2984.101493801 46872.540157404
136	1154757 7732 96647 5228391 75 320 246 30.759158850807 3009.1575993438 367083.3742717 691798266.3957
135	1162489 5540 96647 5228391 75 320 246 1776.6 1779.8 437248.4 777180010.48
214	1168029 6627 312570 5261869 112 321 210 0.973 13.944424503197 566.51928152437 2137.1809162914
213	1174656 7141 312570 5261869 112 321 210 -3.2643541576492 2.1025648248405 19.980936079855 69.255282880101
212	1181797 6671 304616 5261869 111 321 211 2.7112531035569 22.733500938809 3234.0694985627 55884.2952796
211	1188468 5992 296714 5261869 110 321 212 30.252414875344 1520.2 223057.03448747 288984950.68261
210	1194460 5548 296714 5261869 110 321 212 1779.8 3516.2046516364 444800.42669697 990251574.80592
226	1200008 6498 362513 5327018 118 323 206 0.973 12.701341242767 565.5951648378 2169.538695192
225	1206506 7008 362513 5327018 118 323 206 -3.3077951059533 2.1868359605526 20.413936986876 57.349844567578
224	1213514 6561 353482 5327018 117 323 207 2.7154466938761 23.185982604869 3242.933072599 57156.861066922
219	1220075 5885 344847 5327018 116 323 208 30.176038596106 1529.8 219225.91483689 285216745.21917
218	1225960 5443 344847 5327018 116 323 208 36.518338715789 1779.8 303360.64516524 498887186.39886
vector 655 RSUExampleScenario3.node[131].veinsmobility posx ETV
vector 656 RSUExampleScenario3.node[131].veinsmobility posy ETV
244	1231531 6215 437912 5359601 126 324 199 0.6899001913366 14.243560413169 549.00103077767 2378.141446687
243	1237746 6758 437912 5359601 126 324 199 -3.5822253062056 2.085589616301 10.345603930752 96.875979864965
239	1244504 6335 428074 5359601 125 324 200 2.795789192682 25.536853040292 3225.9769164435 57457.304274863
234	1250839 5605 418057 5359601 124 324 201 1529.8 3012.1349819165 391724.31892768 811712705.18315
233	1256444 5352 418057 5359601 124 324 201 1776.6 3519.8243170147 431905.90674602 991028345.3064
vector 657 RSUExampleScenario3.node[131].veinsmobility speed ETV
vector 658 RSUExampleScenario3.node[132].veinsmobility posx ETV
vector 659 RSUExampleScenario3.node[132].veinsmobility posy ETV
vector 660 RSUExampleScenario3.node[131].veinsmobility acceleration ETV
vector 661 RSUExampleScenario3.node[131].veinsmobility co2emission ETV
vector 662 RSUExampleScenario3.node[132].veinsmobility speed ETV
vector 663 RSUExampleScenario3.node[132].veinsmobility acceleration ETV
vector 664 RSUExampleScenario3.node[132].veinsmobility co2emission ETV
256	1262340 6318 469337 5526885 129 329 201 0.973 15.063989284386 593.39912580681 2539.7543586148
255	1268658 6813 469337 5526885 129 329 201 -4.4987490902103 2.1561472484943 21.332689619178 115.75590281767
252	1275471 6344 458891 5526885 128 329 202 0 24.693668762872 3246.7446911956 60702.656828032
248	1281815 5774 448273 5526885 127 329 203 1520.2 3019.3927369401 401511.88064151 846567875.40674
247	1287589 5366 448273 5526885 127 329 203 1770.2 3519.332512126 422636.67443635 934157217.9125
246	1292955 6396 437912 5594684 126 331 206 0.973 10.174331033518 498.1670044428 1573.0763344399
245	1299351 7000 437912 5594684 126 331 206 -3.1665897755157 2.1638949314016 12.600647165291 91.501104151355
240	1306351 6558 428074 5594684 125 331 207 1.5557574689329 15.432681044876 2989.8141815427 44746.340956678
236	1312909 6581 418057 5594684 124 331 208 30.245161161476 3012.5402183695 310019.4213247 616607299.86918
235	1319490 4741 418057 5594684 124 331 208 1776.6 1779.8 369619.2 656819245.44
131	1324231 7603 85849 5629091 72 332 261 0.973 8.6312364848896 547.85802111388 1538.7959461947
130	1331834 8062 85849 5629091 72 332 261 -4.4899511286501 2.2339315452846 12.238637590149 123.39307550141
127	1339896 7565 82526 5629091 71 332 262 0 14.63305226481 2993.5287932937 42758.7816793
126	1347461 8248 79188 5629091 70 332 263 30.1 3017.2111258365 394298.84137294 754256755.18953
125	1355709 5916 79188 5629091 70 332 263 1776.6 1779.8 468017 832851583.96
vector 665 RSUExampleScenario3.node[133].veinsmobility posx ETV
vector 666 RSUExampleScenario3.node[133].veinsmobility posy ETV
vector 667 RSUExampleScenario3.node[133].veinsmobility speed ETV
vector 668 RSUExampleScenario3.node[133].veinsmobility acceleration ETV
vector 669 RSUExampleScenario3.node[133].veinsmobility co2emission ETV
309	1361961 5703 823591 5729865 156 335 180 0.973 16.636491303723 614.25677781393 3164.6557775547
308	1367664 6138 823591 5729865 156 335 180 -4.4648638296516 2.1198108590394 24.00172416263 127.53238985036
307	1373802 5751 807382 5729865 155 335 181 1.1335499581597 27.342442690943 3231.5585281306 66287.704957784
304	1379553 5186 791507 5729865 154 335 182 30.614930499594 1529.8 193461.58130633 253125678.8523
303	1384739 4822 791507 5729865 154 335 182 48.925844697657 1779.8 267645.47476583 441108737.71991
vector 670 RSUExampleScenario3.node[134].veinsmobility posx ETV
vector 671 RSUExampleScenario3.node[134].veinsmobility posy ETV
156	1389689 7583 129796 5762688 83 336 254 0.973 8.6511410365601 535.56176735261 1483.8374085148
155	1397272 8242 129796 5762688 83 336 254 -3.2961753836791 2.0660874671047 11.145012707891 91.294231566667
154	1405514 7746 125141 5762688 82 336 255 0 14.301428764987 2990.4350437165 41656.516414007
148	1413260 8061 120647 5762688 81 336 256 30.460751800104 3014.8458653693 384777.36906725 743756345.55956
147	1421321 5783 120647 5762688 81 336 256 1776.6 1779.8 455494.4 810450158.08
vector 672 RSUExampleScenario3.node[135].veinsmobility posx ETV
vector 673 RSUExampleScenario3.node[135].veinsmobility posy ETV
vector 674 RSUExampleScenario3.node[134].veinsmobility speed ETV
298	1427297 5890 761015 5796023 152 337 186 0.973 16.66952058682 589.57911004534 2783.7673496185
297	1433187 6351 761015 5796023 152 337 186 -4.4441715145973 2.1722398670763 22.16237580662 82.083213219921
294	1439538 5948 745768 5796023 151 337 187 3.6473524381549 25.861530842754 3238.6192714776 63360.775808466
291	1445486 5342 730989 5796023 150 337 188 1526.6 3019.2210542347 375412.16789452 798019346.47935
290	1450828 4952 730989 5796023 150 337 188 30.944749112565 1773.4 273289.26341542 447955625.87339
vector 675 RSUExampleScenario3.node[136].veinsmobility posx ETV
vector 676 RSUExampleScenario3.node[136].veinsmobility posy ETV
vector 677 RSUExampleScenario3.node[134].veinsmobility acceleration ETV
vector 678 RSUExampleScenario3.node[134].veinsmobility co2emission ETV
vector 679 RSUExampleScenario3.node[135].veinsmobility speed ETV
vector 680 RSUExampleScenario3.node[135].veinsmobility acceleration ETV
vector 681 RSUExampleScenario3.node[135].veinsmobility co2emission ETV
vector 682 RSUExampleScenario3.node[136].veinsmobility speed ETV
vector 683 RSUExampleScenario3.node[137].veinsmobility posx ETV
vector 684 RSUExampleScenario3.node[137].veinsmobility posy ETV
vector 685 RSUExampleScenario3.node[138].veinsmobility posx ETV
vector 686 RSUExampleScenario3.node[138].veinsmobility posy ETV
vector 687 RSUExampleScenario3.node[136].veinsmobility acceleration ETV
vector 688 RSUExampleScenario3.node[136].veinsmobility co2emission ETV
vector 689 RSUExampleScenario3.node[139].veinsmobility posx ETV
vector 690 RSUExampleScenario3.node[139].veinsmobility posy ETV
vector 691 RSUExampleScenario3.node[137].veinsmobility speed ETV
vector 692 RSUExampleScenario3.node[138].veinsmobility speed ETV
vector 693 RSUExampleScenario3.node[140].veinsmobility posx ETV
vector 694 RSUExampleScenario3.node[140].veinsmobility posy ETV
vector 695 RSUExampleScenario3.node[141].veinsmobility posx ETV
vector 696 RSUExampleScenario3.node[141].veinsmobility posy ETV
vector 697 RSUExampleScenario3.node[137].veinsmobility acceleration ETV
vector 698 RSUExampleScenario3.node[137].veinsmobility co2emission ETV
vector 699 RSUExampleScenario3.node[138].veinsmobility acceleration ETV
vector 700 RSUExampleScenario3.node[138].veinsmobility co2emission ETV
vector 701 RSUExampleScenario3.node[139].veinsmobility speed ETV
vector 702 RSUExampleScenario3.node[139].veinsmobility acceleration ETV
vector 703 RSUExampleScenario3.node[139].veinsmobility co2emission ETV
vector 704 RSUExampleScenario3.node[140].veinsmobility speed ETV
vector 705 RSUExampleScenario3.node[141].veinsmobility speed ETV
vector 706 RSUExampleScenario3.node[140].veinsmobility acceleration ETV
vector 707 RSUExampleScenario3.node[140].veinsmobility co2emission ETV
vector 708 RSUExampleScenario3.node[141].veinsmobility acceleration ETV
vector 709 RSUExampleScenario3.node[141].veinsmobility co2emission ETV
vector 710 RSUExampleScenario3.node[142].veinsmobility posx ETV
vector 711 RSUExampleScenario3.node[142].veinsmobility posy ETV
vector 712 RSUExampleScenario3.node[143].veinsmobility posx ETV
vector 713 RSUExampleScenario3.node[143].veinsmobility posy ETV
371	1458403 4896 1362051 6067958 185 345 161 0.078233582208461 18.598641638827 815.29910801722 6337.20205987
370	1463299 5345 1362051 6067958 185 345 161 -3.9060099120011 2.1457209720812 25.735696720162 216.54531221623
364	1468644 5075 1340672 6067958 184 345 162 0 29.752301195904 3483.6004128053 97185.718360413
361	1473719 3749 1319012 6067958 183 345 163 1520.2 1523.4 248144.6 377765657.72
360	1477468 5195 1319012 6067958 183 345 163 31.156470106555 3502.7474657219 276579.88077386 607984598.73859
vector 714 RSUExampleScenario3.node[142].veinsmobility speed ETV
vector 715 RSUExampleScenario3.node[143].veinsmobility speed ETV
vector 716 RSUExampleScenario3.node[144].veinsmobility posx ETV
vector 717 RSUExampleScenario3.node[144].veinsmobility posy ETV
vector 718 RSUExampleScenario3.node[142].veinsmobility acceleration ETV
vector 719 RSUExampleScenario3.node[142].veinsmobility co2emission ETV
vector 720 RSUExampleScenario3.node[143].veinsmobility acceleration ETV
vector 721 RSUExampleScenario3.node[143].veinsmobility co2emission ETV
vector 722 RSUExampleScenario3.node[145].veinsmobility posx ETV
vector 723 RSUExampleScenario3.node[145].veinsmobility posy ETV
vector 724 RSUExampleScenario3.node[144].veinsmobility speed ETV
vector 725 RSUExampleScenario3.node[144].veinsmobility acceleration ETV
vector 726 RSUExampleScenario3.node[144].veinsmobility co2emission ETV
vector 727 RSUExampleScenario3.node[145].veinsmobility speed ETV
vector 728 RSUExampleScenario3.node[145].veinsmobility acceleration ETV
vector 729 RSUExampleScenario3.node[145].veinsmobility co2emission ETV
349	1483751 5472 1154090 6293058 175 351 177 0.973 14.289834667137 688.10582857328 3774.7537971939
348	1489223 5973 1154090 6293058 175 351 177 -3.7127289520964 2.1835164843732 21.690334050002 153.76484207806
347	1495196 5648 1133754 6293058 174 351 178 0 24.392055289605 3498.4367226573 81653.749429813
343	1500844 4117 1113881 6293058 173 351 179 1520.2 1520.2 272115.8 413670439.16
342	1504961 5703 1113881 6293058 173 351 179 30.175503384492 3517.5443548574 307131.33202696 691505831.17712
436	1510664 4358 2010468 6293058 211 351 141 0.973 18.387619226515 804.83833256855 6294.4773828691
435	1515022 4762 2010468 6293058 211 351 141 -3.8643254819733 2.2846321332269 26.930363565357 189.24097162795
434	1519784 4538 1984670 6293058 210 351 142 0.02637978502688 30.19708935453 3486.6467788596 98280.2381152
431	1524322 3289 1959550 6293058 209 351 143 1526.6 1529.8 218313.4 333291922.52
430	1527611 4550 1959550 6293058 209 351 143 46.481228098087 3519.5344092834 266772.28828671 635816521.12369
457	1532161 4047 2317334 6331888 223 352 130 0.973 20.636804846329 810.16949084074 6998.0943685503
456	1536208 4387 2317334 6331888 223 352 130 -3.3613118992617 2.1690899872826 26.724626005223 179.7836164207
454	1540595 4176 2291786 6331888 222 352 131 3.7364773239115 31.334146256598 3478.3088876036 100575.13957713
451	1544771 3036 2265104 6331888 221 352 132 1526.6 1529.8 201572 307812827.04
450	1547807 4206 2265104 6331888 221 352 132 54.478201632268 3519.0066870926 246076.69612635 593441843.43592
221	1552013 7498 344847 6369253 116 353 238 0.973 11.661274479059 555.72243152254 1729.5407762696
220	1559511 8122 344847 6369253 116 353 238 -4.5 2.3360923054512 7.096200940419 106.10920221935
217	1567633 7565 336484 6369253 115 353 239 3.1725851068323 20.072746086607 3235.7046442975 49221.421018946
216	1575198 6773 328399 6369253 114 353 240 1526.6 3023.4448286901 475884.04470207 1002999542.6666
215	1581971 6315 328399 6369253 114 353 240 1779.8 3519.6468716238 511231.66541783 1161776311.938
379	1588286 5276 1408342 6441468 187 355 169 0.973 14.918131959753 667.52708590928 3591.246741073
378	1593562 5747 1408342 6441468 187 355 169 -3.2744254604807 2.1225611171522 20.92946499481 144.49234279905
374	1599309 5429 1385003 6441468 186 355 170 0.017207140847615 24.018112923869 3494.6980317223 80217.641941276
367	1604738 3933 1362051 6441468 185 355 171 1520.2 1523.4 260002.2 395328467.64
366	1608671 5452 1362051 6441468 185 355 171 30.351910089484 3515.5631292272 292630.31855545 667602396.7434
386	1614123 5048 1454370 6441468 189 355 167 0.38391533407212 18.034406605792 794.85649150924 6104.935437276
385	1619171 5564 1454370 6441468 189 355 167 -4.3176850565955 2.1540013840725 24.639970486111 231.75229046704
382	1624735 5306 1431799 6441468 188 355 168 0 28.205963467758 3478.9422340183 91136.12333694
377	1630041 3887 1408342 6441468 187 355 169 1526.6 1529.8 258091.4 394149192.04
376	1633928 5388 1408342 6441468 187 355 169 52.194052761235 3519.2365996934 311272.212918 719330728.64242
vector 730 RSUExampleScenario3.node[146].veinsmobility posx ETV
vector 731 RSUExampleScenario3.node[146].veinsmobility posy ETV
vector 732 RSUExampleScenario3.node[147].veinsmobility posx ETV
vector 733 RSUExampleScenario3.node[147].veinsmobility posy ETV
vector 734 RSUExampleScenario3.node[148].veinsmobility posx ETV
vector 735 RSUExampleScenario3.node[148].veinsmobility posy ETV
vector 736 RSUExampleScenario3.node[146].veinsmobility speed ETV
vector 737 RSUExampleScenario3.node[147].veinsmobility speed ETV
vector 738 RSUExampleScenario3.node[146].veinsmobility acceleration ETV
vector 739 RSUExampleScenario3.node[146].veinsmobility co2emission ETV
vector 740 RSUExampleScenario3.node[147].veinsmobility acceleration ETV
vector 741 RSUExampleScenario3.node[147].veinsmobility co2emission ETV
vector 742 RSUExampleScenario3.node[148].veinsmobility speed ETV
[...]
6540	43696178 3940 81386305 82952454 3488 3600 113 2.3110323842491 30.39776502003 1773.0098394672 29502.189369475
6541	43700118 4195 81401800 82952454 3489 3600 112 -0.11525174749317 2.0236984135723 10.074649410938 18.553548265273
6542	43704313 3910 81401800 82952454 3489 3600 112 1.575915983346 7.9126338423929 237.21161200641 582.23366470823
6543	43708223 4139 81401800 82952454 3489 3600 112 -4.4924867247279 2.1381041971035 28.086732635781 103.43221142018
6544	43712362 3889 81401800 82952454 3489 3600 112 0.973 18.557145313391 398.35831514589 2748.6465683127
6545	43716251 2522 81626361 82952454 3504 3600 97 1770.2 1773.4 171824.6 304368202.6
6546	43718773 3392 81626361 82952454 3504 3600 97 1536.4012301444 3018.8527728796 221802.455535 527019420.58736
6547	43722165 3351 81640595 82952454 3505 3600 96 1786.4010002735 3519.3948502534 246300.43393378 665153352.14569
6548	43725516 2496 81640595 82952454 3505 3600 96 1526.6 1529.8 146745.6 224315554.56
6549	43728012 3349 81640595 82952454 3505 3600 96 0.1990460266385 16.337360489236 1480.9575615994 23610.063405278
6550	43731361 3315 81654488 82952454 3506 3600 95 31.124224552171 1763.5989999997 94168.280317424 126753764.35229
6551	43734676 2470 81654488 82952454 3506 3600 95 1523.4 1523.4 144723 220471018.2
6552	43737146 3539 81654488 82952454 3506 3600 95 -4.5 2.1535301734647 -3.8999022317089 90.741250795779
6553	43740685 3272 81654488 82952454 3506 3600 95 0.973 10.028513926153 242.16457620569 782.82798708497
6554	43743957 3150 81654488 82952454 3506 3600 95 0 22.964425497522 1731.7253048792 38270.712859862
6555	43747107 3273 81668980 82952454 3507 3600 94 -4.5 2.158870525232 -3.4287230380527 138.10330469684
6556	43750380 3108 81668980 82952454 3507 3600 94 0.973 13.036670151515 327.86475119448 1640.2406496067
6557	43753488 3098 81668980 82952454 3507 3600 94 0 23.651115901683 1732.2381304622 39269.747002944
6558	43756586 3238 81683240 82952454 3508 3600 93 -4.5 2.0499738371745 -4.0395256362787 136.40467677492
6559	43759824 3072 81683240 82952454 3508 3600 93 0.973 13.734946292742 333.79686270249 1706.8898419623
6560	43762896 2236 81778367 82952454 3515 3600 86 1770.2 1770.2 152237.2 269490291.44
6561	43765132 2993 81778367 82952454 3515 3600 86 1684.6735422772 3018.853262807 204382.61501145 499635643.77954
6562	43768125 2210 81792062 82952454 3516 3600 85 1770.2 1773.4 150502.2 266481418.12
6563	43770335 2971 81792062 82952454 3516 3600 85 1886.7001408221 3019.8231869239 210267.69482888 530058422.70495
6564	43773306 2966 81792062 82952454 3516 3600 85 4.0013767232616 16.3859812759 1339.9963425549 21517.249515695
6565	43776272 3134 81805914 82952454 3517 3600 84 -0.11853947924683 2.0294847240346 12.320629952684 22.84125339902
6566	43779406 2927 81805914 82952454 3517 3600 84 1.827687916743 9.2869390077807 222.76273676787 732.20706778031
6567	43782333 2931 81805914 82952454 3517 3600 84 2.7264404101643 14.073660336065 1138.6163617832 15726.975405494
6568	43785264 2894 81819876 82952454 3518 3600 83 30.342558116614 1762.5549802766 71929.162575704 87090519.922874
6569	43788158 2158 81819876 82952454 3518 3600 83 1520.2 1523.4 126192.6 191862364.92
6570	43790316 2158 81819876 82952454 3518 3600 83 1770.2 1770.2 146926.6 260089467.32
6571	43792474 2900 81819876 82952454 3518 3600 83 2008.0699466993 3019.7515368354 210081.98328525 539432736.57919
6572	43795374 3103 81819876 82952454 3518 3600 83 -0.11472678533522 2.2003481555963 11.310690566255 21.850533530358
6573	43798477 2896 81819876 82952454 3518 3600 83 1.6478585597042 8.2648415782366 192.60529137162 545.29603330594
6574	43801373 2861 81834902 82952454 3519 3600 82 2.9921606192955 23.399008892117 1733.0635980474 38743.547705506
6575	43804234 2864 81834902 82952454 3519 3600 82 2.8782527308348 12.848815067893 1017.3261902122 12839.095930267
6576	43807098 2982 81849763 82952454 3520 3600 81 -4.5 2.1104974746192 0.27825359012752 117.92651058022
6577	43810080 2777 81849763 82952454 3520 3600 81 0.973 14.385688918214 316.43503806205 1660.7941934115
6578	43812857 3024 81849763 82952454 3520 3600 81 -0.11971810996067 2.1921941108024 9.9242095433863 19.66751902101
6579	43815881 2825 81849763 82952454 3520 3600 81 1.5473218359027 8.6317461904948 175.03104259792 467.309779924
6580	43818706 2794 81865303 82952454 3521 3600 80 1828.2720190317 3519.7483503701 218123.91022443 616686927.78531
6581	43821500 2080 81865303 82952454 3521 3600 80 1526.6 1529.8 122368 187174140.8
6582	43823580 2751 81880445 82952454 3522 3600 79 2.9008110043013 23.241932062764 1698.0258877025 38045.454816563
6583	43826331 2028 81895744 82952454 3523 3600 78 1770.2 1773.4 138155.6 244704915.12
6584	43828359 2720 81895744 82952454 3523 3600 78 1930.8291219409 3019.8750885122 194950.88124602 495773808.01583
6585	43831079 2896 81895744 82952454 3523 3600 78 -3.7344939490623 2.0433096503979 13.472777759675 56.476156342654
6586	43833975 2689 81895744 82952454 3523 3600 78 0.973 12.86182706974 311.43019741936 1614.9548670823
6587	43836664 2682 81912223 82952454 3524 3600 77 2.4397399603237 14.881286488945 1095.829753596 15975.459916294
6588	43839346 2834 81927400 82952454 3525 3600 76 -0.11270823817234 2.1758015734795 12.382829174902 23.726053760193
6589	43842180 2653 81927400 82952454 3525 3600 76 1.7185335041626 8.8204013043545 187.41153114381 575.00347621423
6590	43844833 2511 81988745 82952454 3529 3600 72 1923.1065891544 3519.824913817 200298.30987949 574847602.14481
6591	43847344 1872 81988745 82952454 3529 3600 72 1526.6 1529.8 110094.4 168344251.2
6592	43849216 1872 81988745 82952454 3529 3600 72 1776.6 1779.8 128129.6 228016636.48
6593	43851088 2515 81988745 82952454 3529 3600 72 30.346293595911 1043.8913102649 37007.273329977 25856889.823691
6594	43853603 2479 82004931 82952454 3530 3600 71 2.6967484460473 24.486738463949 1607.2803962437 38086.537593527
6595	43856082 2480 82004931 82952454 3530 3600 71 3.0011072337351 15.043768088429 1019.7169579826 15001.208269039
6596	43858562 2596 82020512 82952454 3531 3600 70 -0.10613695618697 2.3131851406652 21.733175971265 44.018087192375
6597	43861158 2443 82020512 82952454 3531 3600 70 3.0006617374119 16.044375316325 316.05869283603 1868.071598489
6598	43863601 2608 82020512 82952454 3531 3600 70 -0.1231439826428 2.0349430441484 12.020891674412 22.696312530918
6599	43866209 2443 82020512 82952454 3531 3600 70 1.6937214325897 9.248554142174 176.15239662269 561.22594693214
6600	43868652 1690 82097814 82952454 3536 3600 65 1770.2 1770.2 115063 203684522.6
6601	43870342 2268 82097814 82952454 3536 3600 65 2221.7603007548 3019.2208086358 171308.15743669 455269881.60394
6602	43872610 1690 82097814 82952454 3536 3600 65 1776.6 1779.8 115671 205842820.2
6603	43874300 2268 82097814 82952454 3536 3600 65 30.25390511874 939.05829288066 30053.645945528 18894468.013999
6604	43876568 2233 82113813 82952454 3537 3600 64 3.6431170125763 13.032935017326 802.30837516247 10234.344447617
6605	43878801 2235 82113813 82952454 3537 3600 64 2.9120254929483 15.028243370457 915.20148120252 13424.265943054
6606	43881036 2351 82129859 82952454 3538 3600 63 -0.096674566660077 1.9984527582 9.2768749743474 17.493827797499
6607	43883387 2195 82129859 82952454 3538 3600 63 1.6310490153107 7.2054054979577 141.22635717819 394.1015890482
6608	43885582 2354 82129859 82952454 3538 3600 63 -0.094537357680965 2.1388205128792 12.113715351704 22.699620150741
6609	43887936 2199 82129859 82952454 3538 3600 63 1.7971803507236 8.1095895747493 161.21623922572 516.97629279167
6610	43890135 1612 82145330 82952454 3539 3600 62 1779.8 1779.8 110347.6 196396658.48
6611	43891747 2162 82145330 82952454 3539 3600 62 30.953738986052 850.61135317994 26271.706257085 14972820.866841
6612	43893909 1586 82161859 82952454 3540 3600 61 1776.6 1779.8 108523 193069643.72
6613	43895495 2126 82161859 82952454 3540 3600 61 30.34235652866 614.91474402029 19115.882451395 7885768.7379419
6614	43897621 2132 82161859 82952454 3540 3600 61 3.7696402053708 14.107420975181 824.62442638756 11366.821942838
6615	43899753 2229 82178009 82952454 3541 3600 60 -0.1256108200131 2.0700623523397 10.337674322154 19.634008096335
6616	43901982 2087 82178009 82952454 3541 3600 60 1.6137231416272 8.0265256579846 145.42111570094 445.84845846878
6617	43904069 2097 82178009 82952454 3541 3600 60 2.9837268519292 10.13527401472 588.18180229713 5846.2009980689
6618	43906166 1534 82193534 82952454 3542 3600 59 1770.2 1773.4 104461 184950911.48
6619	43907700 2063 82193534 82952454 3542 3600 59 2244.6421708609 3019.7478996103 156467.1662815 418282526.24301
6620	43909763 1534 82193534 82952454 3542 3600 59 1776.6 1779.8 104873.8 186415614.2
6621	43911297 2059 82193534 82952454 3542 3600 59 30.24669515691 907.82878608489 26119.12354732 15867979.643937
6622	43913356 2200 82193534 82952454 3542 3600 59 -0.10500289553311 2.1277818555082 7.0970784300813 13.598980181694
6623	43915556 2061 82193534 82952454 3542 3600 59 1.4329219385736 6.0545239233314 111.92798799704 250.45970489902
6624	43917617 2023 82210296 82952454 3543 3600 58 2.7931521366246 14.220543340009 780.33102546705 10792.138552668
6625	43919640 2024 82210296 82952454 3543 3600 58 2.8511724478421 16.205116413332 884.51935755907 13937.286235717
6626	43921664 1990 82225633 82952454 3544 3600 57 2113.8443209515 3519.824443862 165294.18230184 490661336.09676
6627	43923654 1482 82225633 82952454 3544 3600 57 1526.6 1529.8 87166.6 133298613.48
6628	43925136 1482 82225633 82952454 3544 3600 57 1770.2 1773.4 101061.4 179182634.28
6629	43926618 1984 82225633 82952454 3544 3600 57 2181.5630159507 3019.6502366296 149624.45647135 396550075.63902
6630	43928602 2118 82225633 82952454 3544 3600 57 -0.36138130903293 2.0320630113897 10.68318190292 21.983398229616
6631	43930720 1973 82225633 82952454 3544 3600 57 0.973 8.0254130325646 138.45513367655 440.26854710165
6632	43932693 2118 82225633 82952454 3544 3600 57 -0.1139962568949 2.0850945070619 13.258480484752 25.797298343412
6633	43934811 1988 82225633 82952454 3544 3600 57 1.8286221904645 9.3307423847256 159.72628164042 590.57187969517
6634	43936799 1953 82241006 82952454 3545 3600 56 2.5871093054389 28.822295274013 1418.399253502 38762.055958355
6635	43938752 1950 82241006 82952454 3545 3600 56 3.1343404168293 16.0008097769 844.66573884809 13136.818875892
6636	43940702 2030 82256741 82952454 3546 3600 55 -0.088631115630271 2.0858288418525 26.129219282447 50.134238577664
6637	43942732 1923 82256741 82952454 3546 3600 55 3.0884721906395 18.383848990163 334.22806424366 2618.3684157503
6638	43944655 2038 82256741 82952454 3546 3600 55 -0.12106562464265 2.1480256554787 12.778983271639 24.742786111965
6639	43946693 1919 82256741 82952454 3546 3600 55 1.7823194450875 9.390259008158 153.04723232756 558.00878589996
6640	43948612 1404 82271903 82952454 3547 3600 54 1776.6 1779.8 96070.8 170918588.4
6641	43950016 1884 82271903 82952454 3547 3600 54 30.762391152844 725.21304943015 19422.518676008 9422450.4522423
6642	43951900 1847 82287223 82952454 3548 3600 53 3.430082063633 13.971179551499 699.52681720994 9468.4073762665
6643	43953747 1934 82302069 82952454 3549 3600 52 -0.79988235128641 2.1482687295135 10.439380768252 22.583559177712
6644	43955681 1796 82302069 82952454 3549 3600 52 0.973 7.7639613301293 130.61613922407 435.86874743764
6645	43957477 1274 82343389 82952454 3552 3600 49 1770.2 1773.4 86755.8 153603491.56
6646	43958751 1711 82343389 82952454 3552 3600 49 2407.5259333162 3019.0448117576 133686.74222582 366457365.14399
6647	43960462 1670 82356532 82952454 3553 3600 48 3.9110742576316 13.5011795757 616.69578852324 8102.6971414325
6648	43962132 1642 82369780 82952454 3554 3600 47 31.183168746006 984.68666329339 21659.922129635 14220577.126882
6649	43963774 1222 82369780 82952454 3554 3600 47 1520.2 1523.4 71465.4 108666075.48
6650	43964996 1745 82369780 82952454 3554 3600 47 -0.11972840855131 2.0311825242499 9.4922945242326 18.086478896456
6651	43966741 1642 82369780 82952454 3554 3600 47 1.5906181648548 7.7539016019105 113.64145510129 358.11372009274
6652	43968383 1602 82382780 82952454 3555 3600 46 4.0210787475897 23.27399358261 963.10111241223 21339.303859032
6653	43969985 1657 82395999 82952454 3556 3600 45 -0.084483405717183 2.112718173957 19.204659410392 36.886175950697
6654	43971642 1573 82395999 82952454 3556 3600 45 2.9038516814101 13.596108060551 208.33751752232 1297.878971638
6655	43973215 1221 82519225 82952454 3566 3600 35 30.250886821925 757.69136649972 11688.93337978 5836321.8655622
6656	43974436 910 82519225 82952454 3566 3600 35 1520.2 1520.2 53207 80885281.4
6657	43975346 884 82530856 82952454 3567 3600 34 1770.2 1770.2 60186.8 106542673.36
6658	43976230 1187 82530856 82952454 3567 3600 34 2643.6901715759 3018.8519629533 96674.649109571 275346868.0086
6659	43977417 1188 82530856 82952454 3567 3600 34 2.8597049467557 26.35204472757 738.48334747607 17856.140701686
6660	43978605 1206 82542206 82952454 3568 3600 33 -0.078239783796015 2.0833918338222 23.45801103664 44.816922597686
6661	43979811 1154 82542206 82952454 3568 3600 33 3.5120064110571 16.136565358166 201.4524876418 1651.3334675581
6662	43980965 1152 82542206 82952454 3568 3600 33 3.6744560719957 12.280337673547 379.57716946458 4499.1336812049
6663	43982117 1184 82554002 82952454 3569 3600 32 -0.106503585584 2.1913555809599 8.5657810981573 15.958375385153
6664	43983301 1117 82554002 82952454 3569 3600 32 1.5507097511441 7.3912220641798 76.991583733136 245.54425614165
6665	43984418 780 82577085 82952454 3571 3600 30 1776.6 1779.8 53378 94973738.8
6666	43985198 1046 82577085 82952454 3571 3600 30 30.954818070755 340.67317373118 5279.031637064 1210099.3465094
6667	43986244 754 82588782 82952454 3572 3600 29 1770.2 1773.4 51351.8 90931330.76
6668	43986998 1012 82588782 82952454 3572 3600 29 2702.6574437358 3019.2391698207 83295.243325366 239531780.97696
6669	43988010 1014 82588782 82952454 3572 3600 29 3.8202317484898 11.519126111331 314.00704241697 3496.1548694377
6670	43989024 978 82600815 82952454 3573 3600 28 31.189286078041 581.47483147394 7226.9215017334 2753513.4618338
6671	43990002 728 82600815 82952454 3573 3600 28 1523.4 1523.4 42655.2 64980931.68
6672	43990730 1043 82600815 82952454 3573 3600 28 -0.089329976101871 2.1705277000717 7.6988943628412 14.681092261924
6673	43991773 976 82600815 82952454 3573 3600 28 1.5531848117468 6.3077425111904 65.680944704598 205.75566852986
6674	43992749 976 82600815 82952454 3573 3600 28 3.6557568877455 12.313825252816 320.7352692611 3796.1846040689
6675	43993725 997 82613526 82952454 3574 3600 27 -0.092179136727937 2.1561174689955 8.5395380315071 17.142308904102
6676	43994722 938 82613526 82952454 3574 3600 27 1.5952210448772 7.5238719481584 67.849840147297 233.7933940374
6677	43995660 943 82613526 82952454 3574 3600 27 3.974766549249 25.726161655167 560.40524174328 12989.121911958
6678	43996603 943 82625736 82952454 3575 3600 26 -0.12406575749163 2.1177994351741 21.66626894852 41.989789440582
6679	43997546 909 82625736 82952454 3575 3600 26 3.1289894640675 15.88885638457 167.16606032704 1438.4748706693
6680	43998455 624 82650448 82952454 3577 3600 24 1779.8 1779.8 42715.2 76024512.96
6681	43999079 837 82650448 82952454 3577 3600 24 30.125101856927 263.91411867492 3233.5853845004 571499.14977096
6682	43999916 803 82663066 82952454 3578 3600 23 2.483739979389 11.549548909586 238.52928436138 2618.059024774
6683	44000719 811 82675386 82952454 3579 3600 22 -0.087842285332737 2.1327296433924 8.986967620864 17.188971511519
6684	44001530 767 82675386 82952454 3579 3600 22 1.5581681107894 6.9930285216531 55.700893054887 190.70527639375
6685	44002297 455 82788619 82952454 3588 3600 13 30.617684711637 191.71061935282 1161.0423587897 138500.6209673
6686	44002752 338 82788619 82952454 3588 3600 13 1523.4 1523.4 19804.2 30169718.28
6687	44003090 453 82788619 82952454 3588 3600 13 30.250259959763 180.8960405122 1098.2613712647 123376.8820193
6688	44003543 338 82788619 82952454 3588 3600 13 1520.2 1520.2 19762.6 30043104.52
6689	44003881 312 82802129 82952454 3589 3600 12 1776.6 1779.8 21332 37921212.64
6690	44004193 417 82802129 82952454 3589 3600 12 30.471155517964 145.99301891209 914.943695311 87634.168332953
6691	44004610 419 82802129 82952454 3589 3600 12 3.4684895300553 25.076523391359 171.88215384929 3025.9632394993
6692	44005029 420 82802129 82952454 3589 3600 12 2.7841993485208 23.633841519596 160.70634611432 2671.1208272315
6693	44005449 385 82816350 82952454 3590 3600 11 1.7955355810211 2.1341588790272 21.608033861304 42.539638448664
6694	44005834 382 82816350 82952454 3590 3600 11 3.7352506617505 14.62762213804 105.27179106551 1149.4100875035
6695	44006216 383 82816350 82952454 3590 3600 11 1.6298030881354 2.0490296368673 20.849642171075 39.653396002406
6696	44006599 384 82816350 82952454 3590 3600 11 3.5210539034481 13.094122801499 95.554976906067 941.46666613185
6697	44006983 384 82816350 82952454 3590 3600 11 3.1058424418211 14.547213189737 121.22096785709 1518.4118800746
6698	44007367 260 82830199 82952454 3591 3600 10 1779.8 1779.8 17798 31676880.4
6699	44007627 337 82830199 82952454 3591 3600 10 30.1 112.36090692179 599.96816493854 43528.418131345
6700	44007964 357 82830199 82952454 3591 3600 10 -0.10093675598968 2.1534440633212 11.420753782177 22.247554756594
6701	44008321 349 82830199 82952454 3591 3600 10 1.7339815311767 8.4445732489884 45.608250799184 263.91249120127
6702	44008670 312 82843356 82952454 3592 3600 9 2.2572046234347 15.720252084261 89.285290832256 1082.6374567614
6703	44008982 279 82856412 82952454 3593 3600 8 30.796098911013 92.447553774252 436.62062772899 27253.302499349
6704	44009261 208 82856412 82952454 3593 3600 8 1520.2 1520.2 12161.6 18488064.32
6705	44009469 282 82856412 82952454 3593 3600 8 0.019791478461119 2.0628841098524 13.463047460826 26.005512995558
6706	44009751 278 82856412 82952454 3593 3600 8 2.3022081897365 8.3191684867905 46.70991393082 309.09369753868
6707	44010029 245 82869859 82952454 3594 3600 7 3.6782812769966 15.624559988845 67.898004315709 772.18203973484
6708	44010274 208 82883558 82952454 3595 3600 6 1.7261070969375 2.205393039661 11.946278711848 23.913125401424
6709	44010482 210 82883558 82952454 3595 3600 6 4.1018125721131 9.4154968673058 41.317022860693 305.44187058159
6710	44010692 173 82896841 82952454 3596 3600 5 3499.6298696788 3519.7465912111 17558.814574292 61662662.011644
6711	44010865 130 82896841 82952454 3596 3600 5 1529.8 1529.8 7649 11701440.2
6712	44010995 130 82896841 82952454 3596 3600 5 1776.6 1776.6 8883 15781537.8
6713	44011125 164 82896841 82952454 3596 3600 5 30.1 46.838508358168 182.50094971121 6849.7652850811
6714	44011289 139 82910809 82952454 3597 3600 4 30.757781333464 45.222951350056 147.87356627173 5587.1751188888
6715	44011428 104 82910809 82952454 3597 3600 4 1520.2 1520.2 6080.8 9244032.16
6716	44011532 139 82910809 82952454 3597 3600 4 2.8662625095262 8.9358159085982 23.76597571445 161.86836712179
6717	44011671 139 82910809 82952454 3597 3600 4 2.167049921002 8.0012374185952 20.240455873829 121.58383672915
6718	44011810 105 82924837 82952454 3598 3600 3 1.8963510342222 2.1150324524264 6.069553399072 12.305572908217
6719	44011915 105 82924837 82952454 3598 3600 3 3.8011980832763 5.6908293462228 14.562012013307 72.539389196182
6720	44012020 105 82924837 82952454 3598 3600 3 1.8337465481262 2.0705755959754 5.8341874975932 11.374289984021
6721	44012125 105 82924837 82952454 3598 3600 3 3.0769978607061 5.2646555526951 12.794878411694 57.015726808732
6722	44012230 105 82924837 82952454 3598 3600 3 3.6755870710319 7.7164058916439 17.228728713297 107.12034442391
6723	44012335 70 82938736 82952454 3599 3600 2 1.8796701410226 2.1611486795894 4.040818820612 8.203723454343
6724	44012405 70 82938736 82952454 3599 3600 2 4.4499199735906 5.0202193323657 9.4701393059563 45.004389916419
6725	44012475 35 82952454 82952454 3600 3600 1 30.174759262168 30.174759262168 30.174759262168 910.51609652977
6726	44012510 26 82952454 82952454 3600 3600 1 1520.2 1520.2 1520.2 2311008.04

