version 2
run Noattack-0-20250812-10:07:31-24414
attr configname Noattack
attr datetime 20250812-10:07:31
attr experiment Noattack
attr inifile omnetpp.ini
attr iterationvars ""
attr iterationvarsf ""
attr measurement ""
attr network RSUExampleScenario3
attr processid 24414
attr repetition 0
attr replication #0
attr resultdir results
attr runnumber 0
attr seedset 0
param *.hacker[*].appl.attack 0
param *.hacker[*].appl.attackPolicy -1
param *.hacker[*].appl.nDosMessages 0
param *.hacker[*].appl.successProbability 0
param *.hacker[*].appl.attackInterval 0s
param *.hacker[*].appl.beaconInterval 1s
param *.hacker[*].appl.speedAttackOffset "0 mps"
param *.playgroundSizeX 4000m
param *.playgroundSizeY 4000m
param *.playgroundSizeZ 50m
param *.annotations.draw true
param *.manager.updateInterval 1s
param *.manager.host "\"localhost\""
param *.manager.port 9999
param *.manager.autoShutdown true
param *.manager.launchConfig "xmldoc(\"lostest1.launchd.xml\")"
param *.connectionManager.sendDirect true
param *.connectionManager.maxInterfDist 2600m
param *.connectionManager.drawMaxIntfDist false
param *.**.nic.mac1609_4.useServiceChannel false
param *.node[*].nic.mac1609_4.txPower 20mW
param *.**.nic.mac1609_4.bitrate 6Mbps
param *.**.nic.phy80211p.minPowerLevel -110dBm
param *.**.nic.phy80211p.useNoiseFloor true
param *.**.nic.phy80211p.noiseFloor -98dBm
param *.**.nic.phy80211p.decider "xmldoc(\"config.xml\")"
param *.**.nic.phy80211p.analogueModels "xmldoc(\"config.xml\")"
param *.**.nic.phy80211p.usePropagationDelay true
param *.**.nic.phy80211p.antenna "xmldoc(\"antenna.xml\", \"/root/Antenna[@id='monopole']\")"
param *.node[*].nic.phy80211p.antennaOffsetY "0 m"
param *.node[*].nic.phy80211p.antennaOffsetZ "1.895 m"
param *.node[*].applType "\"MyVeinsApp\""
param *.node[*].appl.headerLength "80 bit"
param *.node[*].appl.sendBeacons true
param *.node[*].appl.dataOnSch false
param *.node[*].appl.beaconInterval 1s
param *.node[*].veinsmobility.x 0
param *.node[*].veinsmobility.y 0
param *.node[*].veinsmobility.z 0
param *.node[*].veinsmobility.setHostSpeed false
param *.manager.moduleType "\"hacker=org.car2x.veins.nodes.Car target=org.car2x.veins.nodes.Car *=org.car2x.veins.nodes.Car\""
param *.manager.moduleName "\"hacker=hacker target=target *=node\""
param *.target[*].applType "\"TargetApp\""
param *.target[*].appl.headerLength "80 bit"
param *.target[*].appl.sendBeacons false
param *.target[*].appl.dataOnSch false
param *.target[*].appl.beaconInterval 1s
param *.target[*].veinsmobility.x 0
param *.target[*].veinsmobility.y 0
param *.target[*].veinsmobility.z 0
param *.target[*].veinsmobility.setHostSpeed false
param *.target[*].nic.mac1609_4.txPower 20mW
param *.hacker[*].applType "\"AttackApp\""
param *.hacker[*].appl.headerLength "80 bit"
param *.hacker[*].appl.sendBeacons true
param *.hacker[*].appl.dataOnSch false
param *.hacker[*].veinsmobility.x 0
param *.hacker[*].veinsmobility.y 0
param *.hacker[*].veinsmobility.z 0
param *.hacker[*].veinsmobility.setHostSpeed false
param *.hacker[*].nic.mac1609_4.txPower 20mW
param *.hacker[*].appl.attack 2
param *.hacker[*].appl.attackInterval 0s

scalar RSUExampleScenario3.node[0].nic.phy80211p busyTime 0.00034051612903226
scalar RSUExampleScenario3.node[0].nic.mac1609_4 ReceivedUnicastPackets 0
scalar RSUExampleScenario3.node[0].nic.mac1609_4 ReceivedBroadcasts 13
scalar RSUExampleScenario3.node[0].nic.mac1609_4 SentPackets 2
scalar RSUExampleScenario3.node[0].nic.mac1609_4 SentAcknowledgements 0
scalar RSUExampleScenario3.node[0].nic.mac1609_4 RetriesExceeded 0
scalar RSUExampleScenario3.node[0].nic.mac1609_4 SNIRLostPackets 78
scalar RSUExampleScenario3.node[0].nic.mac1609_4 RXTXLostPackets 1
scalar RSUExampleScenario3.node[0].nic.mac1609_4 TotalLostPackets 79
scalar RSUExampleScenario3.node[0].nic.mac1609_4 DroppedPacketsInMac 0
scalar RSUExampleScenario3.node[0].nic.mac1609_4 TooLittleTime 0
scalar RSUExampleScenario3.node[0].nic.mac1609_4 TimesIntoBackoff 2
scalar RSUExampleScenario3.node[0].nic.mac1609_4 SlotsBackoff 1
scalar RSUExampleScenario3.node[0].nic.mac1609_4 NumInternalContention 0
scalar RSUExampleScenario3.node[0].nic.mac1609_4 totalBusyTime 0.016706011683
scalar RSUExampleScenario3.node[0].nic.mac1609_4 retriesExceeded:count 0
attr source org_car2x_veins_modules_mac_sigRetriesExceeded
scalar RSUExampleScenario3.node[0].nic.mac1609_4 sentAcks:count 0
attr source org_car2x_veins_modules_mac_sigSentAck
scalar RSUExampleScenario3.node[0].nic.mac1609_4 sentPackets:count 2
attr source org_car2x_veins_modules_mac_sigSentPacket
scalar RSUExampleScenario3.node[0].nic.mac1609_4 collisions:count 0
attr source org_car2x_veins_modules_mac_sigCollision
scalar RSUExampleScenario3.node[0].nic.mac1609_4 channelBusy:timeavg 0.00026945180133871
attr source org_car2x_veins_modules_mac_sigChannelBusy
scalar RSUExampleScenario3.node[0].veinsmobility startTime 1
scalar RSUExampleScenario3.node[0].veinsmobility totalTime 61
scalar RSUExampleScenario3.node[0].veinsmobility stopTime 63
scalar RSUExampleScenario3.node[0].veinsmobility minSpeed 4.1049693682593
scalar RSUExampleScenario3.node[0].veinsmobility maxSpeed 37.546004408379
scalar RSUExampleScenario3.node[0].veinsmobility totalDistance 1976.1235175483
scalar RSUExampleScenario3.node[0].veinsmobility totalCO2Emission 574.1504242009
scalar RSUExampleScenario3.node[1].nic.phy80211p busyTime 0.00034051612903226
scalar RSUExampleScenario3.node[1].nic.mac1609_4 ReceivedUnicastPackets 0
scalar RSUExampleScenario3.node[1].nic.mac1609_4 ReceivedBroadcasts 13
scalar RSUExampleScenario3.node[1].nic.mac1609_4 SentPackets 2
scalar RSUExampleScenario3.node[1].nic.mac1609_4 SentAcknowledgements 0
scalar RSUExampleScenario3.node[1].nic.mac1609_4 RetriesExceeded 0
scalar RSUExampleScenario3.node[1].nic.mac1609_4 SNIRLostPackets 78
scalar RSUExampleScenario3.node[1].nic.mac1609_4 RXTXLostPackets 1
scalar RSUExampleScenario3.node[1].nic.mac1609_4 TotalLostPackets 79
scalar RSUExampleScenario3.node[1].nic.mac1609_4 DroppedPacketsInMac 0
scalar RSUExampleScenario3.node[1].nic.mac1609_4 TooLittleTime 0
scalar RSUExampleScenario3.node[1].nic.mac1609_4 TimesIntoBackoff 2
scalar RSUExampleScenario3.node[1].nic.mac1609_4 SlotsBackoff 2
scalar RSUExampleScenario3.node[1].nic.mac1609_4 NumInternalContention 0
scalar RSUExampleScenario3.node[1].nic.mac1609_4 totalBusyTime 0.016706012028
scalar RSUExampleScenario3.node[1].nic.mac1609_4 retriesExceeded:count 0
attr source org_car2x_veins_modules_mac_sigRetriesExceeded
scalar RSUExampleScenario3.node[1].nic.mac1609_4 sentAcks:count 0
attr source org_car2x_veins_modules_mac_sigSentAck
scalar RSUExampleScenario3.node[1].nic.mac1609_4 sentPackets:count 2
attr source org_car2x_veins_modules_mac_sigSentPacket
scalar RSUExampleScenario3.node[1].nic.mac1609_4 collisions:count 0
attr source org_car2x_veins_modules_mac_sigCollision
scalar RSUExampleScenario3.node[1].nic.mac1609_4 channelBusy:timeavg 0.00026945180690323
attr source org_car2x_veins_modules_mac_sigChannelBusy
scalar RSUExampleScenario3.node[1].veinsmobility startTime 1
scalar RSUExampleScenario3.node[1].veinsmobility totalTime 61
scalar RSUExampleScenario3.node[1].veinsmobility stopTime 63
scalar RSUExampleScenario3.node[1].veinsmobility minSpeed 4.0509607485734
scalar RSUExampleScenario3.node[1].veinsmobility maxSpeed 37.543933913547
scalar RSUExampleScenario3.node[1].veinsmobility totalDistance 1968.4449709733
scalar RSUExampleScenario3.node[1].veinsmobility totalCO2Emission 571.67035166233
scalar RSUExampleScenario3.node[3].nic.phy80211p busyTime 0.00033511111111111
scalar RSUExampleScenario3.node[3].nic.mac1609_4 ReceivedUnicastPackets 0
scalar RSUExampleScenario3.node[3].nic.mac1609_4 ReceivedBroadcasts 11
scalar RSUExampleScenario3.node[3].nic.mac1609_4 SentPackets 2
scalar RSUExampleScenario3.node[3].nic.mac1609_4 SentAcknowledgements 0
scalar RSUExampleScenario3.node[3].nic.mac1609_4 RetriesExceeded 0
scalar RSUExampleScenario3.node[3].nic.mac1609_4 SNIRLostPackets 80
scalar RSUExampleScenario3.node[3].nic.mac1609_4 RXTXLostPackets 1
scalar RSUExampleScenario3.node[3].nic.mac1609_4 TotalLostPackets 81
scalar RSUExampleScenario3.node[3].nic.mac1609_4 DroppedPacketsInMac 0
scalar RSUExampleScenario3.node[3].nic.mac1609_4 TooLittleTime 0
scalar RSUExampleScenario3.node[3].nic.mac1609_4 TimesIntoBackoff 2
scalar RSUExampleScenario3.node[3].nic.mac1609_4 SlotsBackoff 3
scalar RSUExampleScenario3.node[3].nic.mac1609_4 NumInternalContention 0
scalar RSUExampleScenario3.node[3].nic.mac1609_4 totalBusyTime 0.016474011852
scalar RSUExampleScenario3.node[3].nic.mac1609_4 retriesExceeded:count 0
attr source org_car2x_veins_modules_mac_sigRetriesExceeded
scalar RSUExampleScenario3.node[3].nic.mac1609_4 sentAcks:count 0
attr source org_car2x_veins_modules_mac_sigSentAck
scalar RSUExampleScenario3.node[3].nic.mac1609_4 sentPackets:count 2
attr source org_car2x_veins_modules_mac_sigSentPacket
scalar RSUExampleScenario3.node[3].nic.mac1609_4 collisions:count 0
attr source org_car2x_veins_modules_mac_sigCollision
scalar RSUExampleScenario3.node[3].nic.mac1609_4 channelBusy:timeavg 0.00026149225161905
attr source org_car2x_veins_modules_mac_sigChannelBusy
scalar RSUExampleScenario3.node[3].veinsmobility startTime 3
scalar RSUExampleScenario3.node[3].veinsmobility totalTime 62
scalar RSUExampleScenario3.node[3].veinsmobility stopTime 66
scalar RSUExampleScenario3.node[3].veinsmobility minSpeed 3.0556481882581
scalar RSUExampleScenario3.node[3].veinsmobility maxSpeed 37.54740559316
scalar RSUExampleScenario3.node[3].veinsmobility totalDistance 1983.5770901569
scalar RSUExampleScenario3.node[3].veinsmobility totalCO2Emission 576.2947950801
scalar RSUExampleScenario3.node[2].nic.phy80211p busyTime 0.00033511111111111
scalar RSUExampleScenario3.node[2].nic.mac1609_4 ReceivedUnicastPackets 0
scalar RSUExampleScenario3.node[2].nic.mac1609_4 ReceivedBroadcasts 12
scalar RSUExampleScenario3.node[2].nic.mac1609_4 SentPackets 2
scalar RSUExampleScenario3.node[2].nic.mac1609_4 SentAcknowledgements 0
scalar RSUExampleScenario3.node[2].nic.mac1609_4 RetriesExceeded 0
scalar RSUExampleScenario3.node[2].nic.mac1609_4 SNIRLostPackets 79
scalar RSUExampleScenario3.node[2].nic.mac1609_4 RXTXLostPackets 1
scalar RSUExampleScenario3.node[2].nic.mac1609_4 TotalLostPackets 80
scalar RSUExampleScenario3.node[2].nic.mac1609_4 DroppedPacketsInMac 0
scalar RSUExampleScenario3.node[2].nic.mac1609_4 TooLittleTime 0
scalar RSUExampleScenario3.node[2].nic.mac1609_4 TimesIntoBackoff 2
scalar RSUExampleScenario3.node[2].nic.mac1609_4 SlotsBackoff 4
scalar RSUExampleScenario3.node[2].nic.mac1609_4 NumInternalContention 0
scalar RSUExampleScenario3.node[2].nic.mac1609_4 totalBusyTime 0.016474011501
scalar RSUExampleScenario3.node[2].nic.mac1609_4 retriesExceeded:count 0
attr source org_car2x_veins_modules_mac_sigRetriesExceeded
scalar RSUExampleScenario3.node[2].nic.mac1609_4 sentAcks:count 0
attr source org_car2x_veins_modules_mac_sigSentAck
scalar RSUExampleScenario3.node[2].nic.mac1609_4 sentPackets:count 2
attr source org_car2x_veins_modules_mac_sigSentPacket
scalar RSUExampleScenario3.node[2].nic.mac1609_4 collisions:count 0
attr source org_car2x_veins_modules_mac_sigCollision
scalar RSUExampleScenario3.node[2].nic.mac1609_4 channelBusy:timeavg 0.00026149224604762
attr source org_car2x_veins_modules_mac_sigChannelBusy
scalar RSUExampleScenario3.node[2].veinsmobility startTime 3
scalar RSUExampleScenario3.node[2].veinsmobility totalTime 62
scalar RSUExampleScenario3.node[2].veinsmobility stopTime 66
scalar RSUExampleScenario3.node[2].veinsmobility minSpeed 3.0037244161537
scalar RSUExampleScenario3.node[2].veinsmobility maxSpeed 37.546873188044
scalar RSUExampleScenario3.node[2].veinsmobility totalDistance 1981.7576149551
scalar RSUExampleScenario3.node[2].veinsmobility totalCO2Emission 576.4999275178
scalar RSUExampleScenario3.node[7].nic.phy80211p busyTime 0.00033142857142857
scalar RSUExampleScenario3.node[7].nic.mac1609_4 ReceivedUnicastPackets 0
scalar RSUExampleScenario3.node[7].nic.mac1609_4 ReceivedBroadcasts 15
scalar RSUExampleScenario3.node[7].nic.mac1609_4 SentPackets 2
scalar RSUExampleScenario3.node[7].nic.mac1609_4 SentAcknowledgements 0
scalar RSUExampleScenario3.node[7].nic.mac1609_4 RetriesExceeded 0
scalar RSUExampleScenario3.node[7].nic.mac1609_4 SNIRLostPackets 75
scalar RSUExampleScenario3.node[7].nic.mac1609_4 RXTXLostPackets 2
scalar RSUExampleScenario3.node[7].nic.mac1609_4 TotalLostPackets 77
scalar RSUExampleScenario3.node[7].nic.mac1609_4 DroppedPacketsInMac 0
scalar RSUExampleScenario3.node[7].nic.mac1609_4 TooLittleTime 0
scalar RSUExampleScenario3.node[7].nic.mac1609_4 TimesIntoBackoff 2
scalar RSUExampleScenario3.node[7].nic.mac1609_4 SlotsBackoff 3
scalar RSUExampleScenario3.node[7].nic.mac1609_4 NumInternalContention 0
scalar RSUExampleScenario3.node[7].nic.mac1609_4 totalBusyTime 0.016706021348
scalar RSUExampleScenario3.node[7].nic.mac1609_4 retriesExceeded:count 0
attr source org_car2x_veins_modules_mac_sigRetriesExceeded
scalar RSUExampleScenario3.node[7].nic.mac1609_4 sentAcks:count 0
attr source org_car2x_veins_modules_mac_sigSentAck
scalar RSUExampleScenario3.node[7].nic.mac1609_4 sentPackets:count 2
attr source org_car2x_veins_modules_mac_sigSentPacket
scalar RSUExampleScenario3.node[7].nic.mac1609_4 collisions:count 0
attr source org_car2x_veins_modules_mac_sigCollision
scalar RSUExampleScenario3.node[7].nic.mac1609_4 channelBusy:timeavg 0.00026517494203175
attr source org_car2x_veins_modules_mac_sigChannelBusy
scalar RSUExampleScenario3.node[7].veinsmobility startTime 8
scalar RSUExampleScenario3.node[7].veinsmobility totalTime 62
scalar RSUExampleScenario3.node[7].veinsmobility stopTime 71
scalar RSUExampleScenario3.node[7].veinsmobility minSpeed 2.2188898846425
scalar RSUExampleScenario3.node[7].veinsmobility maxSpeed 37.542643026327
scalar RSUExampleScenario3.node[7].veinsmobility totalDistance 1965.0580397457
scalar RSUExampleScenario3.node[7].veinsmobility totalCO2Emission 573.65135598134
scalar RSUExampleScenario3.node[4].nic.phy80211p busyTime 0.00033776470588235
scalar RSUExampleScenario3.node[4].nic.mac1609_4 ReceivedUnicastPackets 0
scalar RSUExampleScenario3.node[4].nic.mac1609_4 ReceivedBroadcasts 17
scalar RSUExampleScenario3.node[4].nic.mac1609_4 SentPackets 2
scalar RSUExampleScenario3.node[4].nic.mac1609_4 SentAcknowledgements 0
scalar RSUExampleScenario3.node[4].nic.mac1609_4 RetriesExceeded 0
scalar RSUExampleScenario3.node[4].nic.mac1609_4 SNIRLostPackets 82
scalar RSUExampleScenario3.node[4].nic.mac1609_4 RXTXLostPackets 1
scalar RSUExampleScenario3.node[4].nic.mac1609_4 TotalLostPackets 83
scalar RSUExampleScenario3.node[4].nic.mac1609_4 DroppedPacketsInMac 0
scalar RSUExampleScenario3.node[4].nic.mac1609_4 TooLittleTime 0
scalar RSUExampleScenario3.node[4].nic.mac1609_4 TimesIntoBackoff 2
scalar RSUExampleScenario3.node[4].nic.mac1609_4 SlotsBackoff 4
scalar RSUExampleScenario3.node[4].nic.mac1609_4 NumInternalContention 0
scalar RSUExampleScenario3.node[4].nic.mac1609_4 totalBusyTime 0.018330013302
scalar RSUExampleScenario3.node[4].nic.mac1609_4 retriesExceeded:count 0
attr source org_car2x_veins_modules_mac_sigRetriesExceeded
scalar RSUExampleScenario3.node[4].nic.mac1609_4 sentAcks:count 0
attr source org_car2x_veins_modules_mac_sigSentAck
scalar RSUExampleScenario3.node[4].nic.mac1609_4 sentPackets:count 2
attr source org_car2x_veins_modules_mac_sigSentPacket
scalar RSUExampleScenario3.node[4].nic.mac1609_4 collisions:count 0
attr source org_car2x_veins_modules_mac_sigCollision
scalar RSUExampleScenario3.node[4].nic.mac1609_4 channelBusy:timeavg 0.00026955901914706
attr source org_car2x_veins_modules_mac_sigChannelBusy
scalar RSUExampleScenario3.node[4].veinsmobility startTime 6
scalar RSUExampleScenario3.node[4].veinsmobility totalTime 67
scalar RSUExampleScenario3.node[4].veinsmobility stopTime 74
scalar RSUExampleScenario3.node[4].veinsmobility minSpeed 3.3073804356839
scalar RSUExampleScenario3.node[4].veinsmobility maxSpeed 37.546421425372
scalar RSUExampleScenario3.node[4].veinsmobility totalDistance 1978.7958230348
scalar RSUExampleScenario3.node[4].veinsmobility totalCO2Emission 564.08656555877
scalar RSUExampleScenario3.node[10].nic.phy80211p busyTime 0.00034234146341463
scalar RSUExampleScenario3.node[10].nic.mac1609_4 ReceivedUnicastPackets 0
scalar RSUExampleScenario3.node[10].nic.mac1609_4 ReceivedBroadcasts 21
scalar RSUExampleScenario3.node[10].nic.mac1609_4 SentPackets 2
scalar RSUExampleScenario3.node[10].nic.mac1609_4 SentAcknowledgements 0
scalar RSUExampleScenario3.node[10].nic.mac1609_4 RetriesExceeded 0
scalar RSUExampleScenario3.node[10].nic.mac1609_4 SNIRLostPackets 100
scalar RSUExampleScenario3.node[10].nic.mac1609_4 RXTXLostPackets 1
scalar RSUExampleScenario3.node[10].nic.mac1609_4 TotalLostPackets 101
scalar RSUExampleScenario3.node[10].nic.mac1609_4 DroppedPacketsInMac 0
scalar RSUExampleScenario3.node[10].nic.mac1609_4 TooLittleTime 0
scalar RSUExampleScenario3.node[10].nic.mac1609_4 TimesIntoBackoff 2
scalar RSUExampleScenario3.node[10].nic.mac1609_4 SlotsBackoff 2
scalar RSUExampleScenario3.node[10].nic.mac1609_4 NumInternalContention 0
scalar RSUExampleScenario3.node[10].nic.mac1609_4 totalBusyTime 0.022970014698
scalar RSUExampleScenario3.node[10].nic.mac1609_4 retriesExceeded:count 0
attr source org_car2x_veins_modules_mac_sigRetriesExceeded
scalar RSUExampleScenario3.node[10].nic.mac1609_4 sentAcks:count 0
attr source org_car2x_veins_modules_mac_sigSentAck
scalar RSUExampleScenario3.node[10].nic.mac1609_4 sentPackets:count 2
attr source org_car2x_veins_modules_mac_sigSentPacket
scalar RSUExampleScenario3.node[10].nic.mac1609_4 collisions:count 0
attr source org_car2x_veins_modules_mac_sigCollision
scalar RSUExampleScenario3.node[10].nic.mac1609_4 channelBusy:timeavg 0.00028012213046341
attr source org_car2x_veins_modules_mac_sigChannelBusy
scalar RSUExampleScenario3.node[10].veinsmobility startTime 14
scalar RSUExampleScenario3.node[10].veinsmobility totalTime 81
scalar RSUExampleScenario3.node[10].veinsmobility stopTime 96
scalar RSUExampleScenario3.node[10].veinsmobility minSpeed 3.6491446396697
scalar RSUExampleScenario3.node[10].veinsmobility maxSpeed 27.108016973923
scalar RSUExampleScenario3.node[10].veinsmobility totalDistance 1980.7012214243
scalar RSUExampleScenario3.node[10].veinsmobility totalCO2Emission 401.77860357471
scalar RSUExampleScenario3.node[14].nic.phy80211p busyTime 0.00034234146341463
scalar RSUExampleScenario3.node[14].nic.mac1609_4 ReceivedUnicastPackets 0
scalar RSUExampleScenario3.node[14].nic.mac1609_4 ReceivedBroadcasts 30
scalar RSUExampleScenario3.node[14].nic.mac1609_4 SentPackets 2
scalar RSUExampleScenario3.node[14].nic.mac1609_4 SentAcknowledgements 0
scalar RSUExampleScenario3.node[14].nic.mac1609_4 RetriesExceeded 0
scalar RSUExampleScenario3.node[14].nic.mac1609_4 SNIRLostPackets 91
scalar RSUExampleScenario3.node[14].nic.mac1609_4 RXTXLostPackets 1
scalar RSUExampleScenario3.node[14].nic.mac1609_4 TotalLostPackets 92
scalar RSUExampleScenario3.node[14].nic.mac1609_4 DroppedPacketsInMac 0
scalar RSUExampleScenario3.node[14].nic.mac1609_4 TooLittleTime 0
scalar RSUExampleScenario3.node[14].nic.mac1609_4 TimesIntoBackoff 2
scalar RSUExampleScenario3.node[14].nic.mac1609_4 SlotsBackoff 4
scalar RSUExampleScenario3.node[14].nic.mac1609_4 NumInternalContention 0
scalar RSUExampleScenario3.node[14].nic.mac1609_4 totalBusyTime 0.023434013184
scalar RSUExampleScenario3.node[14].nic.mac1609_4 retriesExceeded:count 0
attr source org_car2x_veins_modules_mac_sigRetriesExceeded
scalar RSUExampleScenario3.node[14].nic.mac1609_4 sentAcks:count 0
attr source org_car2x_veins_modules_mac_sigSentAck
scalar RSUExampleScenario3.node[14].nic.mac1609_4 sentPackets:count 2
attr source org_car2x_veins_modules_mac_sigSentPacket
scalar RSUExampleScenario3.node[14].nic.mac1609_4 collisions:count 0
attr source org_car2x_veins_modules_mac_sigCollision
scalar RSUExampleScenario3.node[14].nic.mac1609_4 channelBusy:timeavg 0.00028578064858537
attr source org_car2x_veins_modules_mac_sigChannelBusy
scalar RSUExampleScenario3.node[14].veinsmobility startTime 19
scalar RSUExampleScenario3.node[14].veinsmobility totalTime 81
scalar RSUExampleScenario3.node[14].veinsmobility stopTime 101
scalar RSUExampleScenario3.node[14].veinsmobility minSpeed 3.2575855861786
scalar RSUExampleScenario3.node[14].veinsmobility maxSpeed 31.646974465802
scalar RSUExampleScenario3.node[14].veinsmobility totalDistance 1992.4210815379
scalar RSUExampleScenario3.node[14].veinsmobility totalCO2Emission 458.86216236896
scalar RSUExampleScenario3.node[13].nic.phy80211p busyTime 0.00033990697674419
scalar RSUExampleScenario3.node[13].nic.mac1609_4 ReceivedUnicastPackets 0
scalar RSUExampleScenario3.node[13].nic.mac1609_4 ReceivedBroadcasts 32
scalar RSUExampleScenario3.node[13].nic.mac1609_4 SentPackets 2
scalar RSUExampleScenario3.node[13].nic.mac1609_4 SentAcknowledgements 0
scalar RSUExampleScenario3.node[13].nic.mac1609_4 RetriesExceeded 0
scalar RSUExampleScenario3.node[13].nic.mac1609_4 SNIRLostPackets 94
scalar RSUExampleScenario3.node[13].nic.mac1609_4 RXTXLostPackets 2
scalar RSUExampleScenario3.node[13].nic.mac1609_4 TotalLostPackets 96
scalar RSUExampleScenario3.node[13].nic.mac1609_4 DroppedPacketsInMac 0
scalar RSUExampleScenario3.node[13].nic.mac1609_4 TooLittleTime 0
scalar RSUExampleScenario3.node[13].nic.mac1609_4 TimesIntoBackoff 2
scalar RSUExampleScenario3.node[13].nic.mac1609_4 SlotsBackoff 3
scalar RSUExampleScenario3.node[13].nic.mac1609_4 NumInternalContention 0
scalar RSUExampleScenario3.node[13].nic.mac1609_4 totalBusyTime 0.024362021402
scalar RSUExampleScenario3.node[13].nic.mac1609_4 retriesExceeded:count 0
attr source org_car2x_veins_modules_mac_sigRetriesExceeded
scalar RSUExampleScenario3.node[13].nic.mac1609_4 sentAcks:count 0
attr source org_car2x_veins_modules_mac_sigSentAck
scalar RSUExampleScenario3.node[13].nic.mac1609_4 sentPackets:count 2
attr source org_car2x_veins_modules_mac_sigSentPacket
scalar RSUExampleScenario3.node[13].nic.mac1609_4 collisions:count 0
attr source org_car2x_veins_modules_mac_sigCollision
scalar RSUExampleScenario3.node[13].nic.mac1609_4 channelBusy:timeavg 0.00028327931862791
attr source org_car2x_veins_modules_mac_sigChannelBusy
scalar RSUExampleScenario3.node[13].veinsmobility startTime 16
scalar RSUExampleScenario3.node[13].veinsmobility totalTime 85
scalar RSUExampleScenario3.node[13].veinsmobility stopTime 102
scalar RSUExampleScenario3.node[13].veinsmobility minSpeed 2.3133675992958
scalar RSUExampleScenario3.node[13].veinsmobility maxSpeed 34.446615976591
scalar RSUExampleScenario3.node[13].veinsmobility totalDistance 1985.1235084087
scalar RSUExampleScenario3.node[13].veinsmobility totalCO2Emission 491.72332997896
scalar RSUExampleScenario3.node[5].nic.phy80211p busyTime 0.00034378181818182
scalar RSUExampleScenario3.node[5].nic.mac1609_4 ReceivedUnicastPackets 0
scalar RSUExampleScenario3.node[5].nic.mac1609_4 ReceivedBroadcasts 22
scalar RSUExampleScenario3.node[5].nic.mac1609_4 SentPackets 2
scalar RSUExampleScenario3.node[5].nic.mac1609_4 SentAcknowledgements 0
scalar RSUExampleScenario3.node[5].nic.mac1609_4 RetriesExceeded 0
scalar RSUExampleScenario3.node[5].nic.mac1609_4 SNIRLostPackets 141
scalar RSUExampleScenario3.node[5].nic.mac1609_4 RXTXLostPackets 1
scalar RSUExampleScenario3.node[5].nic.mac1609_4 TotalLostPackets 142
scalar RSUExampleScenario3.node[5].nic.mac1609_4 DroppedPacketsInMac 0
scalar RSUExampleScenario3.node[5].nic.mac1609_4 TooLittleTime 0
scalar RSUExampleScenario3.node[5].nic.mac1609_4 TimesIntoBackoff 2
scalar RSUExampleScenario3.node[5].nic.mac1609_4 SlotsBackoff 1
scalar RSUExampleScenario3.node[5].nic.mac1609_4 NumInternalContention 0
scalar RSUExampleScenario3.node[5].nic.mac1609_4 totalBusyTime 0.031090013282
scalar RSUExampleScenario3.node[5].nic.mac1609_4 retriesExceeded:count 0
attr source org_car2x_veins_modules_mac_sigRetriesExceeded
scalar RSUExampleScenario3.node[5].nic.mac1609_4 sentAcks:count 0
attr source org_car2x_veins_modules_mac_sigSentAck
scalar RSUExampleScenario3.node[5].nic.mac1609_4 sentPackets:count 2
attr source org_car2x_veins_modules_mac_sigSentPacket
scalar RSUExampleScenario3.node[5].nic.mac1609_4 collisions:count 0
attr source org_car2x_veins_modules_mac_sigCollision
scalar RSUExampleScenario3.node[5].nic.mac1609_4 channelBusy:timeavg 0.00028263648438182
attr source org_car2x_veins_modules_mac_sigChannelBusy
scalar RSUExampleScenario3.node[5].veinsmobility startTime 6
scalar RSUExampleScenario3.node[5].veinsmobility totalTime 109
scalar RSUExampleScenario3.node[5].veinsmobility stopTime 116
scalar RSUExampleScenario3.node[5].veinsmobility minSpeed 3.4639862189764
scalar RSUExampleScenario3.node[5].veinsmobility maxSpeed 18.982618677931
scalar RSUExampleScenario3.node[5].veinsmobility totalDistance 1984.8698701757
scalar RSUExampleScenario3.node[5].veinsmobility totalCO2Emission 325.37127215415
scalar RSUExampleScenario3.node[11].nic.phy80211p busyTime 0.0003446213592233
scalar RSUExampleScenario3.node[11].nic.mac1609_4 ReceivedUnicastPackets 0
scalar RSUExampleScenario3.node[11].nic.mac1609_4 ReceivedBroadcasts 33
scalar RSUExampleScenario3.node[11].nic.mac1609_4 SentPackets 2
scalar RSUExampleScenario3.node[11].nic.mac1609_4 SentAcknowledgements 0
scalar RSUExampleScenario3.node[11].nic.mac1609_4 RetriesExceeded 0
scalar RSUExampleScenario3.node[11].nic.mac1609_4 SNIRLostPackets 120
scalar RSUExampleScenario3.node[11].nic.mac1609_4 RXTXLostPackets 1
scalar RSUExampleScenario3.node[11].nic.mac1609_4 TotalLostPackets 121
scalar RSUExampleScenario3.node[11].nic.mac1609_4 DroppedPacketsInMac 0
scalar RSUExampleScenario3.node[11].nic.mac1609_4 TooLittleTime 0
scalar RSUExampleScenario3.node[11].nic.mac1609_4 TimesIntoBackoff 2
scalar RSUExampleScenario3.node[11].nic.mac1609_4 SlotsBackoff 6
scalar RSUExampleScenario3.node[11].nic.mac1609_4 NumInternalContention 0
scalar RSUExampleScenario3.node[11].nic.mac1609_4 totalBusyTime 0.02946601186
scalar RSUExampleScenario3.node[11].nic.mac1609_4 retriesExceeded:count 0
attr source org_car2x_veins_modules_mac_sigRetriesExceeded
scalar RSUExampleScenario3.node[11].nic.mac1609_4 sentAcks:count 0
attr source org_car2x_veins_modules_mac_sigSentAck
scalar RSUExampleScenario3.node[11].nic.mac1609_4 sentPackets:count 2
attr source org_car2x_veins_modules_mac_sigSentPacket
scalar RSUExampleScenario3.node[11].nic.mac1609_4 collisions:count 0
attr source org_car2x_veins_modules_mac_sigCollision
scalar RSUExampleScenario3.node[11].nic.mac1609_4 channelBusy:timeavg 0.00028607778504854
attr source org_car2x_veins_modules_mac_sigChannelBusy
scalar RSUExampleScenario3.node[11].veinsmobility startTime 14
scalar RSUExampleScenario3.node[11].veinsmobility totalTime 102
scalar RSUExampleScenario3.node[11].veinsmobility stopTime 117
scalar RSUExampleScenario3.node[11].veinsmobility minSpeed 3.4181202380999
scalar RSUExampleScenario3.node[11].veinsmobility maxSpeed 23.923990352102
scalar RSUExampleScenario3.node[11].veinsmobility totalDistance 1981.4336178855
scalar RSUExampleScenario3.node[11].veinsmobility totalCO2Emission 388.50920031284
scalar RSUExampleScenario3.node[12].nic.phy80211p busyTime 0.00033907692307692
scalar RSUExampleScenario3.node[12].nic.mac1609_4 ReceivedUnicastPackets 0
scalar RSUExampleScenario3.node[12].nic.mac1609_4 ReceivedBroadcasts 25
scalar RSUExampleScenario3.node[12].nic.mac1609_4 SentPackets 2
scalar RSUExampleScenario3.node[12].nic.mac1609_4 SentAcknowledgements 0
scalar RSUExampleScenario3.node[12].nic.mac1609_4 RetriesExceeded 0
scalar RSUExampleScenario3.node[12].nic.mac1609_4 SNIRLostPackets 127
scalar RSUExampleScenario3.node[12].nic.mac1609_4 RXTXLostPackets 2
scalar RSUExampleScenario3.node[12].nic.mac1609_4 TotalLostPackets 129
scalar RSUExampleScenario3.node[12].nic.mac1609_4 DroppedPacketsInMac 0
scalar RSUExampleScenario3.node[12].nic.mac1609_4 TooLittleTime 0
scalar RSUExampleScenario3.node[12].nic.mac1609_4 TimesIntoBackoff 2
scalar RSUExampleScenario3.node[12].nic.mac1609_4 SlotsBackoff 1
scalar RSUExampleScenario3.node[12].nic.mac1609_4 NumInternalContention 0
scalar RSUExampleScenario3.node[12].nic.mac1609_4 totalBusyTime 0.029698023605
scalar RSUExampleScenario3.node[12].nic.mac1609_4 retriesExceeded:count 0
attr source org_car2x_veins_modules_mac_sigRetriesExceeded
scalar RSUExampleScenario3.node[12].nic.mac1609_4 sentAcks:count 0
attr source org_car2x_veins_modules_mac_sigSentAck
scalar RSUExampleScenario3.node[12].nic.mac1609_4 sentPackets:count 2
attr source org_car2x_veins_modules_mac_sigSentPacket
scalar RSUExampleScenario3.node[12].nic.mac1609_4 collisions:count 0
attr source org_car2x_veins_modules_mac_sigCollision
scalar RSUExampleScenario3.node[12].nic.mac1609_4 channelBusy:timeavg 0.00028555791927885
attr source org_car2x_veins_modules_mac_sigChannelBusy
scalar RSUExampleScenario3.node[12].veinsmobility startTime 16
scalar RSUExampleScenario3.node[12].veinsmobility totalTime 103
scalar RSUExampleScenario3.node[12].veinsmobility stopTime 120
scalar RSUExampleScenario3.node[12].veinsmobility minSpeed 2.4570822471604
scalar RSUExampleScenario3.node[12].veinsmobility maxSpeed 20.930200621817
scalar RSUExampleScenario3.node[12].veinsmobility totalDistance 1993.272955106
scalar RSUExampleScenario3.node[12].veinsmobility totalCO2Emission 347.62229733876
scalar RSUExampleScenario3.node[15].nic.phy80211p busyTime 0.000348
scalar RSUExampleScenario3.node[15].nic.mac1609_4 ReceivedUnicastPackets 0
scalar RSUExampleScenario3.node[15].nic.mac1609_4 ReceivedBroadcasts 34
scalar RSUExampleScenario3.node[15].nic.mac1609_4 SentPackets 2
scalar RSUExampleScenario3.node[15].nic.mac1609_4 SentAcknowledgements 0
scalar RSUExampleScenario3.node[15].nic.mac1609_4 RetriesExceeded 0
scalar RSUExampleScenario3.node[15].nic.mac1609_4 SNIRLostPackets 119
scalar RSUExampleScenario3.node[15].nic.mac1609_4 RXTXLostPackets 1
scalar RSUExampleScenario3.node[15].nic.mac1609_4 TotalLostPackets 120
scalar RSUExampleScenario3.node[15].nic.mac1609_4 DroppedPacketsInMac 0
scalar RSUExampleScenario3.node[15].nic.mac1609_4 TooLittleTime 0
scalar RSUExampleScenario3.node[15].nic.mac1609_4 TimesIntoBackoff 2
scalar RSUExampleScenario3.node[15].nic.mac1609_4 SlotsBackoff 6
scalar RSUExampleScenario3.node[15].nic.mac1609_4 NumInternalContention 0
scalar RSUExampleScenario3.node[15].nic.mac1609_4 totalBusyTime 0.029930011253
scalar RSUExampleScenario3.node[15].nic.mac1609_4 retriesExceeded:count 0
attr source org_car2x_veins_modules_mac_sigRetriesExceeded
scalar RSUExampleScenario3.node[15].nic.mac1609_4 sentAcks:count 0
attr source org_car2x_veins_modules_mac_sigSentAck
scalar RSUExampleScenario3.node[15].nic.mac1609_4 sentPackets:count 2
attr source org_car2x_veins_modules_mac_sigSentPacket
scalar RSUExampleScenario3.node[15].nic.mac1609_4 collisions:count 0
attr source org_car2x_veins_modules_mac_sigCollision
scalar RSUExampleScenario3.node[15].nic.mac1609_4 channelBusy:timeavg 0.00029343148287255
attr source org_car2x_veins_modules_mac_sigChannelBusy
scalar RSUExampleScenario3.node[15].veinsmobility startTime 19
scalar RSUExampleScenario3.node[15].veinsmobility totalTime 101
scalar RSUExampleScenario3.node[15].veinsmobility stopTime 121
scalar RSUExampleScenario3.node[15].veinsmobility minSpeed 3.0039027520391
scalar RSUExampleScenario3.node[15].veinsmobility maxSpeed 22.983627173989
scalar RSUExampleScenario3.node[15].veinsmobility totalDistance 1972.8700901287
scalar RSUExampleScenario3.node[15].veinsmobility totalCO2Emission 367.16448830163
scalar RSUExampleScenario3.node[19].nic.phy80211p busyTime 0.00033907692307692
scalar RSUExampleScenario3.node[19].nic.mac1609_4 ReceivedUnicastPackets 0
scalar RSUExampleScenario3.node[19].nic.mac1609_4 ReceivedBroadcasts 36
scalar RSUExampleScenario3.node[19].nic.mac1609_4 SentPackets 2
scalar RSUExampleScenario3.node[19].nic.mac1609_4 SentAcknowledgements 0
scalar RSUExampleScenario3.node[19].nic.mac1609_4 RetriesExceeded 0
scalar RSUExampleScenario3.node[19].nic.mac1609_4 SNIRLostPackets 116
scalar RSUExampleScenario3.node[19].nic.mac1609_4 RXTXLostPackets 2
scalar RSUExampleScenario3.node[19].nic.mac1609_4 TotalLostPackets 118
scalar RSUExampleScenario3.node[19].nic.mac1609_4 DroppedPacketsInMac 0
scalar RSUExampleScenario3.node[19].nic.mac1609_4 TooLittleTime 0
scalar RSUExampleScenario3.node[19].nic.mac1609_4 TimesIntoBackoff 2
scalar RSUExampleScenario3.node[19].nic.mac1609_4 SlotsBackoff 3
scalar RSUExampleScenario3.node[19].nic.mac1609_4 NumInternalContention 0
scalar RSUExampleScenario3.node[19].nic.mac1609_4 totalBusyTime 0.030162022637
scalar RSUExampleScenario3.node[19].nic.mac1609_4 retriesExceeded:count 0
attr source org_car2x_veins_modules_mac_sigRetriesExceeded
scalar RSUExampleScenario3.node[19].nic.mac1609_4 sentAcks:count 0
attr source org_car2x_veins_modules_mac_sigSentAck
scalar RSUExampleScenario3.node[19].nic.mac1609_4 sentPackets:count 2
attr source org_car2x_veins_modules_mac_sigSentPacket
scalar RSUExampleScenario3.node[19].nic.mac1609_4 collisions:count 0
attr source org_car2x_veins_modules_mac_sigCollision
scalar RSUExampleScenario3.node[19].nic.mac1609_4 channelBusy:timeavg 0.00029001944843269
attr source org_car2x_veins_modules_mac_sigChannelBusy
scalar RSUExampleScenario3.node[19].veinsmobility startTime 24
scalar RSUExampleScenario3.node[19].veinsmobility totalTime 103
scalar RSUExampleScenario3.node[19].veinsmobility stopTime 128
scalar RSUExampleScenario3.node[19].veinsmobility minSpeed 2.6353810811292
scalar RSUExampleScenario3.node[19].veinsmobility maxSpeed 22.707300556806
scalar RSUExampleScenario3.node[19].veinsmobility totalDistance 1972.7081748991
scalar RSUExampleScenario3.node[19].veinsmobility totalCO2Emission 366.94279117285
scalar RSUExampleScenario3.node[21].nic.phy80211p busyTime 0.00034689523809524
scalar RSUExampleScenario3.node[21].nic.mac1609_4 ReceivedUnicastPackets 0
scalar RSUExampleScenario3.node[21].nic.mac1609_4 ReceivedBroadcasts 35
scalar RSUExampleScenario3.node[21].nic.mac1609_4 SentPackets 2
scalar RSUExampleScenario3.node[21].nic.mac1609_4 SentAcknowledgements 0
scalar RSUExampleScenario3.node[21].nic.mac1609_4 RetriesExceeded 0
scalar RSUExampleScenario3.node[21].nic.mac1609_4 SNIRLostPackets 122
scalar RSUExampleScenario3.node[21].nic.mac1609_4 RXTXLostPackets 1
scalar RSUExampleScenario3.node[21].nic.mac1609_4 TotalLostPackets 123
scalar RSUExampleScenario3.node[21].nic.mac1609_4 DroppedPacketsInMac 0
scalar RSUExampleScenario3.node[21].nic.mac1609_4 TooLittleTime 0
scalar RSUExampleScenario3.node[21].nic.mac1609_4 TimesIntoBackoff 2
scalar RSUExampleScenario3.node[21].nic.mac1609_4 SlotsBackoff 3
scalar RSUExampleScenario3.node[21].nic.mac1609_4 NumInternalContention 0
scalar RSUExampleScenario3.node[21].nic.mac1609_4 totalBusyTime 0.031090010929
scalar RSUExampleScenario3.node[21].nic.mac1609_4 retriesExceeded:count 0
attr source org_car2x_veins_modules_mac_sigRetriesExceeded
scalar RSUExampleScenario3.node[21].nic.mac1609_4 sentAcks:count 0
attr source org_car2x_veins_modules_mac_sigSentAck
scalar RSUExampleScenario3.node[21].nic.mac1609_4 sentPackets:count 2
attr source org_car2x_veins_modules_mac_sigSentPacket
scalar RSUExampleScenario3.node[21].nic.mac1609_4 collisions:count 0
attr source org_car2x_veins_modules_mac_sigCollision
scalar RSUExampleScenario3.node[21].nic.mac1609_4 channelBusy:timeavg 0.00029609534218095
attr source org_car2x_veins_modules_mac_sigChannelBusy
scalar RSUExampleScenario3.node[21].veinsmobility startTime 27
scalar RSUExampleScenario3.node[21].veinsmobility totalTime 104
scalar RSUExampleScenario3.node[21].veinsmobility stopTime 132
scalar RSUExampleScenario3.node[21].veinsmobility minSpeed 3.3119661503127
scalar RSUExampleScenario3.node[21].veinsmobility maxSpeed 21.66096911435
scalar RSUExampleScenario3.node[21].veinsmobility totalDistance 1977.0698604373
scalar RSUExampleScenario3.node[21].veinsmobility totalCO2Emission 357.31346843276
scalar RSUExampleScenario3.node[25].nic.phy80211p busyTime 0.00034585185185185
scalar RSUExampleScenario3.node[25].nic.mac1609_4 ReceivedUnicastPackets 0
scalar RSUExampleScenario3.node[25].nic.mac1609_4 ReceivedBroadcasts 29
scalar RSUExampleScenario3.node[25].nic.mac1609_4 SentPackets 2
scalar RSUExampleScenario3.node[25].nic.mac1609_4 SentAcknowledgements 0
scalar RSUExampleScenario3.node[25].nic.mac1609_4 RetriesExceeded 0
scalar RSUExampleScenario3.node[25].nic.mac1609_4 SNIRLostPackets 132
scalar RSUExampleScenario3.node[25].nic.mac1609_4 RXTXLostPackets 1
scalar RSUExampleScenario3.node[25].nic.mac1609_4 TotalLostPackets 133
scalar RSUExampleScenario3.node[25].nic.mac1609_4 DroppedPacketsInMac 0
scalar RSUExampleScenario3.node[25].nic.mac1609_4 TooLittleTime 0
scalar RSUExampleScenario3.node[25].nic.mac1609_4 TimesIntoBackoff 2
scalar RSUExampleScenario3.node[25].nic.mac1609_4 SlotsBackoff 0
scalar RSUExampleScenario3.node[25].nic.mac1609_4 NumInternalContention 0
scalar RSUExampleScenario3.node[25].nic.mac1609_4 totalBusyTime 0.031554012042
scalar RSUExampleScenario3.node[25].nic.mac1609_4 retriesExceeded:count 0
attr source org_car2x_veins_modules_mac_sigRetriesExceeded
scalar RSUExampleScenario3.node[25].nic.mac1609_4 sentAcks:count 0
attr source org_car2x_veins_modules_mac_sigSentAck
scalar RSUExampleScenario3.node[25].nic.mac1609_4 sentPackets:count 2
attr source org_car2x_veins_modules_mac_sigSentPacket
scalar RSUExampleScenario3.node[25].nic.mac1609_4 collisions:count 0
attr source org_car2x_veins_modules_mac_sigCollision
scalar RSUExampleScenario3.node[25].nic.mac1609_4 channelBusy:timeavg 0.00029216677816667
attr source org_car2x_veins_modules_mac_sigChannelBusy
scalar RSUExampleScenario3.node[25].veinsmobility startTime 32
scalar RSUExampleScenario3.node[25].veinsmobility totalTime 107
scalar RSUExampleScenario3.node[25].veinsmobility stopTime 140
scalar RSUExampleScenario3.node[25].veinsmobility minSpeed 2.6159308393905
scalar RSUExampleScenario3.node[25].veinsmobility maxSpeed 20.063776681251
scalar RSUExampleScenario3.node[25].veinsmobility totalDistance 1986.4426712575
scalar RSUExampleScenario3.node[25].veinsmobility totalCO2Emission 339.65303763908
scalar RSUExampleScenario3.node[17].nic.phy80211p busyTime 0.0003450756302521
scalar RSUExampleScenario3.node[17].nic.mac1609_4 ReceivedUnicastPackets 0
scalar RSUExampleScenario3.node[17].nic.mac1609_4 ReceivedBroadcasts 37
scalar RSUExampleScenario3.node[17].nic.mac1609_4 SentPackets 2
scalar RSUExampleScenario3.node[17].nic.mac1609_4 SentAcknowledgements 0
scalar RSUExampleScenario3.node[17].nic.mac1609_4 RetriesExceeded 0
scalar RSUExampleScenario3.node[17].nic.mac1609_4 SNIRLostPackets 140
scalar RSUExampleScenario3.node[17].nic.mac1609_4 RXTXLostPackets 1
scalar RSUExampleScenario3.node[17].nic.mac1609_4 TotalLostPackets 141
scalar RSUExampleScenario3.node[17].nic.mac1609_4 DroppedPacketsInMac 0
scalar RSUExampleScenario3.node[17].nic.mac1609_4 TooLittleTime 0
scalar RSUExampleScenario3.node[17].nic.mac1609_4 TimesIntoBackoff 2
scalar RSUExampleScenario3.node[17].nic.mac1609_4 SlotsBackoff 5
scalar RSUExampleScenario3.node[17].nic.mac1609_4 NumInternalContention 0
scalar RSUExampleScenario3.node[17].nic.mac1609_4 totalBusyTime 0.034338011398
scalar RSUExampleScenario3.node[17].nic.mac1609_4 retriesExceeded:count 0
attr source org_car2x_veins_modules_mac_sigRetriesExceeded
scalar RSUExampleScenario3.node[17].nic.mac1609_4 sentAcks:count 0
attr source org_car2x_veins_modules_mac_sigSentAck
scalar RSUExampleScenario3.node[17].nic.mac1609_4 sentPackets:count 2
attr source org_car2x_veins_modules_mac_sigSentPacket
scalar RSUExampleScenario3.node[17].nic.mac1609_4 collisions:count 0
attr source org_car2x_veins_modules_mac_sigCollision
scalar RSUExampleScenario3.node[17].nic.mac1609_4 channelBusy:timeavg 0.00028855471763025
attr source org_car2x_veins_modules_mac_sigChannelBusy
scalar RSUExampleScenario3.node[17].veinsmobility startTime 22
scalar RSUExampleScenario3.node[17].veinsmobility totalTime 118
scalar RSUExampleScenario3.node[17].veinsmobility stopTime 141
scalar RSUExampleScenario3.node[17].veinsmobility minSpeed 3.8245124060105
scalar RSUExampleScenario3.node[17].veinsmobility maxSpeed 18.252936092504
scalar RSUExampleScenario3.node[17].veinsmobility totalDistance 1992.4231702115
scalar RSUExampleScenario3.node[17].veinsmobility totalCO2Emission 338.75828869961
scalar RSUExampleScenario3.node[26].nic.phy80211p busyTime 0.00034362264150943
scalar RSUExampleScenario3.node[26].nic.mac1609_4 ReceivedUnicastPackets 0
scalar RSUExampleScenario3.node[26].nic.mac1609_4 ReceivedBroadcasts 30
scalar RSUExampleScenario3.node[26].nic.mac1609_4 SentPackets 2
scalar RSUExampleScenario3.node[26].nic.mac1609_4 SentAcknowledgements 0
scalar RSUExampleScenario3.node[26].nic.mac1609_4 RetriesExceeded 0
scalar RSUExampleScenario3.node[26].nic.mac1609_4 SNIRLostPackets 127
scalar RSUExampleScenario3.node[26].nic.mac1609_4 RXTXLostPackets 1
scalar RSUExampleScenario3.node[26].nic.mac1609_4 TotalLostPackets 128
scalar RSUExampleScenario3.node[26].nic.mac1609_4 DroppedPacketsInMac 0
scalar RSUExampleScenario3.node[26].nic.mac1609_4 TooLittleTime 0
scalar RSUExampleScenario3.node[26].nic.mac1609_4 TimesIntoBackoff 2
scalar RSUExampleScenario3.node[26].nic.mac1609_4 SlotsBackoff 5
scalar RSUExampleScenario3.node[26].nic.mac1609_4 NumInternalContention 0
scalar RSUExampleScenario3.node[26].nic.mac1609_4 totalBusyTime 0.03085801363
scalar RSUExampleScenario3.node[26].nic.mac1609_4 retriesExceeded:count 0
attr source org_car2x_veins_modules_mac_sigRetriesExceeded
scalar RSUExampleScenario3.node[26].nic.mac1609_4 sentAcks:count 0
attr source org_car2x_veins_modules_mac_sigSentAck
scalar RSUExampleScenario3.node[26].nic.mac1609_4 sentPackets:count 2
attr source org_car2x_veins_modules_mac_sigSentPacket
scalar RSUExampleScenario3.node[26].nic.mac1609_4 collisions:count 0
attr source org_car2x_veins_modules_mac_sigCollision
scalar RSUExampleScenario3.node[26].nic.mac1609_4 channelBusy:timeavg 0.00029111333613207
attr source org_car2x_veins_modules_mac_sigChannelBusy
scalar RSUExampleScenario3.node[26].veinsmobility startTime 35
scalar RSUExampleScenario3.node[26].veinsmobility totalTime 105
scalar RSUExampleScenario3.node[26].veinsmobility stopTime 141
scalar RSUExampleScenario3.node[26].veinsmobility minSpeed 3.8767973691343
scalar RSUExampleScenario3.node[26].veinsmobility maxSpeed 22.813025521691
scalar RSUExampleScenario3.node[26].veinsmobility totalDistance 1978.3794184413
scalar RSUExampleScenario3.node[26].veinsmobility totalCO2Emission 345.73684916296
scalar RSUExampleScenario3.node[28].nic.phy80211p busyTime 0.00034362264150943
scalar RSUExampleScenario3.node[28].nic.mac1609_4 ReceivedUnicastPackets 0
scalar RSUExampleScenario3.node[28].nic.mac1609_4 ReceivedBroadcasts 31
scalar RSUExampleScenario3.node[28].nic.mac1609_4 SentPackets 2
scalar RSUExampleScenario3.node[28].nic.mac1609_4 SentAcknowledgements 0
scalar RSUExampleScenario3.node[28].nic.mac1609_4 RetriesExceeded 0
scalar RSUExampleScenario3.node[28].nic.mac1609_4 SNIRLostPackets 126
scalar RSUExampleScenario3.node[28].nic.mac1609_4 RXTXLostPackets 1
scalar RSUExampleScenario3.node[28].nic.mac1609_4 TotalLostPackets 127
scalar RSUExampleScenario3.node[28].nic.mac1609_4 DroppedPacketsInMac 0
scalar RSUExampleScenario3.node[28].nic.mac1609_4 TooLittleTime 0
scalar RSUExampleScenario3.node[28].nic.mac1609_4 TimesIntoBackoff 2
scalar RSUExampleScenario3.node[28].nic.mac1609_4 SlotsBackoff 4
scalar RSUExampleScenario3.node[28].nic.mac1609_4 NumInternalContention 0
scalar RSUExampleScenario3.node[28].nic.mac1609_4 totalBusyTime 0.03085801427
scalar RSUExampleScenario3.node[28].nic.mac1609_4 retriesExceeded:count 0
attr source org_car2x_veins_modules_mac_sigRetriesExceeded
scalar RSUExampleScenario3.node[28].nic.mac1609_4 sentAcks:count 0
attr source org_car2x_veins_modules_mac_sigSentAck
scalar RSUExampleScenario3.node[28].nic.mac1609_4 sentPackets:count 2
attr source org_car2x_veins_modules_mac_sigSentPacket
scalar RSUExampleScenario3.node[28].nic.mac1609_4 collisions:count 0
attr source org_car2x_veins_modules_mac_sigCollision
scalar RSUExampleScenario3.node[28].nic.mac1609_4 channelBusy:timeavg 0.00029111334216981
attr source org_car2x_veins_modules_mac_sigChannelBusy
scalar RSUExampleScenario3.node[28].veinsmobility startTime 37
scalar RSUExampleScenario3.node[28].veinsmobility totalTime 105
scalar RSUExampleScenario3.node[28].veinsmobility stopTime 143
scalar RSUExampleScenario3.node[28].veinsmobility minSpeed 2.5648390722213
scalar RSUExampleScenario3.node[28].veinsmobility maxSpeed 20.032834814327
scalar RSUExampleScenario3.node[28].veinsmobility totalDistance 1989.9143007485
scalar RSUExampleScenario3.node[28].veinsmobility totalCO2Emission 334.46327085797
scalar RSUExampleScenario3.node[32].nic.phy80211p busyTime 0.00034568
scalar RSUExampleScenario3.node[32].nic.mac1609_4 ReceivedUnicastPackets 0
scalar RSUExampleScenario3.node[32].nic.mac1609_4 ReceivedBroadcasts 28
scalar RSUExampleScenario3.node[32].nic.mac1609_4 SentPackets 2
scalar RSUExampleScenario3.node[32].nic.mac1609_4 SentAcknowledgements 0
scalar RSUExampleScenario3.node[32].nic.mac1609_4 RetriesExceeded 0
scalar RSUExampleScenario3.node[32].nic.mac1609_4 SNIRLostPackets 121
scalar RSUExampleScenario3.node[32].nic.mac1609_4 RXTXLostPackets 1
scalar RSUExampleScenario3.node[32].nic.mac1609_4 TotalLostPackets 122
scalar RSUExampleScenario3.node[32].nic.mac1609_4 DroppedPacketsInMac 0
scalar RSUExampleScenario3.node[32].nic.mac1609_4 TooLittleTime 0
scalar RSUExampleScenario3.node[32].nic.mac1609_4 TimesIntoBackoff 2
scalar RSUExampleScenario3.node[32].nic.mac1609_4 SlotsBackoff 6
scalar RSUExampleScenario3.node[32].nic.mac1609_4 NumInternalContention 0
scalar RSUExampleScenario3.node[32].nic.mac1609_4 totalBusyTime 0.029466011283
scalar RSUExampleScenario3.node[32].nic.mac1609_4 retriesExceeded:count 0
attr source org_car2x_veins_modules_mac_sigRetriesExceeded
scalar RSUExampleScenario3.node[32].nic.mac1609_4 sentAcks:count 0
attr source org_car2x_veins_modules_mac_sigSentAck
scalar RSUExampleScenario3.node[32].nic.mac1609_4 sentPackets:count 2
attr source org_car2x_veins_modules_mac_sigSentPacket
scalar RSUExampleScenario3.node[32].nic.mac1609_4 collisions:count 0
attr source org_car2x_veins_modules_mac_sigCollision
scalar RSUExampleScenario3.node[32].nic.mac1609_4 channelBusy:timeavg 0.00029466011283
attr source org_car2x_veins_modules_mac_sigChannelBusy
scalar RSUExampleScenario3.node[32].veinsmobility startTime 43
scalar RSUExampleScenario3.node[32].veinsmobility totalTime 99
scalar RSUExampleScenario3.node[32].veinsmobility stopTime 143
scalar RSUExampleScenario3.node[32].veinsmobility minSpeed 4.0571401998349
scalar RSUExampleScenario3.node[32].veinsmobility maxSpeed 28.880848378539
scalar RSUExampleScenario3.node[32].veinsmobility totalDistance 1984.509828231
scalar RSUExampleScenario3.node[32].veinsmobility totalCO2Emission 406.18812291424
scalar RSUExampleScenario3.node[22].nic.phy80211p busyTime 0.00034295652173913
scalar RSUExampleScenario3.node[22].nic.mac1609_4 ReceivedUnicastPackets 0
scalar RSUExampleScenario3.node[22].nic.mac1609_4 ReceivedBroadcasts 38
scalar RSUExampleScenario3.node[22].nic.mac1609_4 SentPackets 2
scalar RSUExampleScenario3.node[22].nic.mac1609_4 SentAcknowledgements 0
scalar RSUExampleScenario3.node[22].nic.mac1609_4 RetriesExceeded 0
scalar RSUExampleScenario3.node[22].nic.mac1609_4 SNIRLostPackets 132
scalar RSUExampleScenario3.node[22].nic.mac1609_4 RXTXLostPackets 0
scalar RSUExampleScenario3.node[22].nic.mac1609_4 TotalLostPackets 132
scalar RSUExampleScenario3.node[22].nic.mac1609_4 DroppedPacketsInMac 0
scalar RSUExampleScenario3.node[22].nic.mac1609_4 TooLittleTime 0
scalar RSUExampleScenario3.node[22].nic.mac1609_4 TimesIntoBackoff 2
scalar RSUExampleScenario3.node[22].nic.mac1609_4 SlotsBackoff 4
scalar RSUExampleScenario3.node[22].nic.mac1609_4 NumInternalContention 0
scalar RSUExampleScenario3.node[22].nic.mac1609_4 totalBusyTime 0.033178003388
scalar RSUExampleScenario3.node[22].nic.mac1609_4 retriesExceeded:count 0
attr source org_car2x_veins_modules_mac_sigRetriesExceeded
scalar RSUExampleScenario3.node[22].nic.mac1609_4 sentAcks:count 0
attr source org_car2x_veins_modules_mac_sigSentAck
scalar RSUExampleScenario3.node[22].nic.mac1609_4 sentPackets:count 2
attr source org_car2x_veins_modules_mac_sigSentPacket
scalar RSUExampleScenario3.node[22].nic.mac1609_4 collisions:count 0
attr source org_car2x_veins_modules_mac_sigCollision
scalar RSUExampleScenario3.node[22].nic.mac1609_4 channelBusy:timeavg 0.00028850437728696
attr source org_car2x_veins_modules_mac_sigChannelBusy
scalar RSUExampleScenario3.node[22].veinsmobility startTime 29
scalar RSUExampleScenario3.node[22].veinsmobility totalTime 114
scalar RSUExampleScenario3.node[22].veinsmobility stopTime 144
scalar RSUExampleScenario3.node[22].veinsmobility minSpeed 2.345114349237
scalar RSUExampleScenario3.node[22].veinsmobility maxSpeed 27.934026967074
scalar RSUExampleScenario3.node[22].veinsmobility totalDistance 1981.7036491791
scalar RSUExampleScenario3.node[22].veinsmobility totalCO2Emission 403.59961696704
scalar RSUExampleScenario3.node[18].nic.phy80211p busyTime 0.00034512396694215
scalar RSUExampleScenario3.node[18].nic.mac1609_4 ReceivedUnicastPackets 0
scalar RSUExampleScenario3.node[18].nic.mac1609_4 ReceivedBroadcasts 36
scalar RSUExampleScenario3.node[18].nic.mac1609_4 SentPackets 2
scalar RSUExampleScenario3.node[18].nic.mac1609_4 SentAcknowledgements 0
scalar RSUExampleScenario3.node[18].nic.mac1609_4 RetriesExceeded 0
scalar RSUExampleScenario3.node[18].nic.mac1609_4 SNIRLostPackets 144
scalar RSUExampleScenario3.node[18].nic.mac1609_4 RXTXLostPackets 2
scalar RSUExampleScenario3.node[18].nic.mac1609_4 TotalLostPackets 146
scalar RSUExampleScenario3.node[18].nic.mac1609_4 DroppedPacketsInMac 0
scalar RSUExampleScenario3.node[18].nic.mac1609_4 TooLittleTime 0
scalar RSUExampleScenario3.node[18].nic.mac1609_4 TimesIntoBackoff 2
scalar RSUExampleScenario3.node[18].nic.mac1609_4 SlotsBackoff 3
scalar RSUExampleScenario3.node[18].nic.mac1609_4 NumInternalContention 0
scalar RSUExampleScenario3.node[18].nic.mac1609_4 totalBusyTime 0.035034024747
scalar RSUExampleScenario3.node[18].nic.mac1609_4 retriesExceeded:count 0
attr source org_car2x_veins_modules_mac_sigRetriesExceeded
scalar RSUExampleScenario3.node[18].nic.mac1609_4 sentAcks:count 0
attr source org_car2x_veins_modules_mac_sigSentAck
scalar RSUExampleScenario3.node[18].nic.mac1609_4 sentPackets:count 2
attr source org_car2x_veins_modules_mac_sigSentPacket
scalar RSUExampleScenario3.node[18].nic.mac1609_4 collisions:count 0
attr source org_car2x_veins_modules_mac_sigCollision
scalar RSUExampleScenario3.node[18].nic.mac1609_4 channelBusy:timeavg 0.00028953739460331
attr source org_car2x_veins_modules_mac_sigChannelBusy
scalar RSUExampleScenario3.node[18].veinsmobility startTime 24
scalar RSUExampleScenario3.node[18].veinsmobility totalTime 120
scalar RSUExampleScenario3.node[18].veinsmobility stopTime 145
scalar RSUExampleScenario3.node[18].veinsmobility minSpeed 2.9603339288077
scalar RSUExampleScenario3.node[18].veinsmobility maxSpeed 28.914329563279
scalar RSUExampleScenario3.node[18].veinsmobility totalDistance 1978.1500968461
scalar RSUExampleScenario3.node[18].veinsmobility totalCO2Emission 408.76934207566
scalar RSUExampleScenario3.node[20].nic.phy80211p busyTime 0.00034704132231405
scalar RSUExampleScenario3.node[20].nic.mac1609_4 ReceivedUnicastPackets 0
scalar RSUExampleScenario3.node[20].nic.mac1609_4 ReceivedBroadcasts 37
scalar RSUExampleScenario3.node[20].nic.mac1609_4 SentPackets 2
scalar RSUExampleScenario3.node[20].nic.mac1609_4 SentAcknowledgements 0
scalar RSUExampleScenario3.node[20].nic.mac1609_4 RetriesExceeded 0
scalar RSUExampleScenario3.node[20].nic.mac1609_4 SNIRLostPackets 144
scalar RSUExampleScenario3.node[20].nic.mac1609_4 RXTXLostPackets 1
scalar RSUExampleScenario3.node[20].nic.mac1609_4 TotalLostPackets 145
scalar RSUExampleScenario3.node[20].nic.mac1609_4 DroppedPacketsInMac 0
scalar RSUExampleScenario3.node[20].nic.mac1609_4 TooLittleTime 0
scalar RSUExampleScenario3.node[20].nic.mac1609_4 TimesIntoBackoff 2
scalar RSUExampleScenario3.node[20].nic.mac1609_4 SlotsBackoff 4
scalar RSUExampleScenario3.node[20].nic.mac1609_4 NumInternalContention 0
scalar RSUExampleScenario3.node[20].nic.mac1609_4 totalBusyTime 0.035266010929
scalar RSUExampleScenario3.node[20].nic.mac1609_4 retriesExceeded:count 0
attr source org_car2x_veins_modules_mac_sigRetriesExceeded
scalar RSUExampleScenario3.node[20].nic.mac1609_4 sentAcks:count 0
attr source org_car2x_veins_modules_mac_sigSentAck
scalar RSUExampleScenario3.node[20].nic.mac1609_4 sentPackets:count 2
attr source org_car2x_veins_modules_mac_sigSentPacket
scalar RSUExampleScenario3.node[20].nic.mac1609_4 collisions:count 0
attr source org_car2x_veins_modules_mac_sigCollision
scalar RSUExampleScenario3.node[20].nic.mac1609_4 channelBusy:timeavg 0.00029145463577686
attr source org_car2x_veins_modules_mac_sigChannelBusy
scalar RSUExampleScenario3.node[20].veinsmobility startTime 27
scalar RSUExampleScenario3.node[20].veinsmobility totalTime 120
scalar RSUExampleScenario3.node[20].veinsmobility stopTime 148
scalar RSUExampleScenario3.node[20].veinsmobility minSpeed 3.594413632819
scalar RSUExampleScenario3.node[20].veinsmobility maxSpeed 20.98317581736
scalar RSUExampleScenario3.node[20].veinsmobility totalDistance 1988.0224858798
scalar RSUExampleScenario3.node[20].veinsmobility totalCO2Emission 369.48434548836
scalar RSUExampleScenario3.node[24].nic.phy80211p busyTime 0.00034304273504274
scalar RSUExampleScenario3.node[24].nic.mac1609_4 ReceivedUnicastPackets 0
scalar RSUExampleScenario3.node[24].nic.mac1609_4 ReceivedBroadcasts 35
scalar RSUExampleScenario3.node[24].nic.mac1609_4 SentPackets 2
scalar RSUExampleScenario3.node[24].nic.mac1609_4 SentAcknowledgements 0
scalar RSUExampleScenario3.node[24].nic.mac1609_4 RetriesExceeded 0
scalar RSUExampleScenario3.node[24].nic.mac1609_4 SNIRLostPackets 138
scalar RSUExampleScenario3.node[24].nic.mac1609_4 RXTXLostPackets 1
scalar RSUExampleScenario3.node[24].nic.mac1609_4 TotalLostPackets 139
scalar RSUExampleScenario3.node[24].nic.mac1609_4 DroppedPacketsInMac 0
scalar RSUExampleScenario3.node[24].nic.mac1609_4 TooLittleTime 0
scalar RSUExampleScenario3.node[24].nic.mac1609_4 TimesIntoBackoff 2
scalar RSUExampleScenario3.node[24].nic.mac1609_4 SlotsBackoff 3
scalar RSUExampleScenario3.node[24].nic.mac1609_4 NumInternalContention 0
scalar RSUExampleScenario3.node[24].nic.mac1609_4 totalBusyTime 0.033642014154
scalar RSUExampleScenario3.node[24].nic.mac1609_4 retriesExceeded:count 0
attr source org_car2x_veins_modules_mac_sigRetriesExceeded
scalar RSUExampleScenario3.node[24].nic.mac1609_4 sentAcks:count 0
attr source org_car2x_veins_modules_mac_sigSentAck
scalar RSUExampleScenario3.node[24].nic.mac1609_4 sentPackets:count 2
attr source org_car2x_veins_modules_mac_sigSentPacket
scalar RSUExampleScenario3.node[24].nic.mac1609_4 collisions:count 0
attr source org_car2x_veins_modules_mac_sigCollision
scalar RSUExampleScenario3.node[24].nic.mac1609_4 channelBusy:timeavg 0.00028753858251282
attr source org_car2x_veins_modules_mac_sigChannelBusy
scalar RSUExampleScenario3.node[24].veinsmobility startTime 32
scalar RSUExampleScenario3.node[24].veinsmobility totalTime 116
scalar RSUExampleScenario3.node[24].veinsmobility stopTime 149
scalar RSUExampleScenario3.node[24].veinsmobility minSpeed 3.1492471487929
scalar RSUExampleScenario3.node[24].veinsmobility maxSpeed 21.692475651306
scalar RSUExampleScenario3.node[24].veinsmobility totalDistance 1982.8456056737
scalar RSUExampleScenario3.node[24].veinsmobility totalCO2Emission 370.72582720278
scalar RSUExampleScenario3.node[23].nic.phy80211p busyTime 0.00035186666666667
scalar RSUExampleScenario3.node[23].nic.mac1609_4 ReceivedUnicastPackets 0
scalar RSUExampleScenario3.node[23].nic.mac1609_4 ReceivedBroadcasts 32
scalar RSUExampleScenario3.node[23].nic.mac1609_4 SentPackets 2
scalar RSUExampleScenario3.node[23].nic.mac1609_4 SentAcknowledgements 0
scalar RSUExampleScenario3.node[23].nic.mac1609_4 RetriesExceeded 0
scalar RSUExampleScenario3.node[23].nic.mac1609_4 SNIRLostPackets 150
scalar RSUExampleScenario3.node[23].nic.mac1609_4 RXTXLostPackets 0
scalar RSUExampleScenario3.node[23].nic.mac1609_4 TotalLostPackets 150
scalar RSUExampleScenario3.node[23].nic.mac1609_4 DroppedPacketsInMac 0
scalar RSUExampleScenario3.node[23].nic.mac1609_4 TooLittleTime 0
scalar RSUExampleScenario3.node[23].nic.mac1609_4 TimesIntoBackoff 2
scalar RSUExampleScenario3.node[23].nic.mac1609_4 SlotsBackoff 6
scalar RSUExampleScenario3.node[23].nic.mac1609_4 NumInternalContention 0
scalar RSUExampleScenario3.node[23].nic.mac1609_4 totalBusyTime 0.035034001103
scalar RSUExampleScenario3.node[23].nic.mac1609_4 retriesExceeded:count 0
attr source org_car2x_veins_modules_mac_sigRetriesExceeded
scalar RSUExampleScenario3.node[23].nic.mac1609_4 sentAcks:count 0
attr source org_car2x_veins_modules_mac_sigSentAck
scalar RSUExampleScenario3.node[23].nic.mac1609_4 sentPackets:count 2
attr source org_car2x_veins_modules_mac_sigSentPacket
scalar RSUExampleScenario3.node[23].nic.mac1609_4 collisions:count 0
attr source org_car2x_veins_modules_mac_sigCollision
scalar RSUExampleScenario3.node[23].nic.mac1609_4 channelBusy:timeavg 0.00029195000919167
attr source org_car2x_veins_modules_mac_sigChannelBusy
scalar RSUExampleScenario3.node[23].veinsmobility startTime 30
scalar RSUExampleScenario3.node[23].veinsmobility totalTime 119
scalar RSUExampleScenario3.node[23].veinsmobility stopTime 150
scalar RSUExampleScenario3.node[23].veinsmobility minSpeed 3.8484563470868
scalar RSUExampleScenario3.node[23].veinsmobility maxSpeed 18.246618215085
scalar RSUExampleScenario3.node[23].veinsmobility totalDistance 1976.5304577541
scalar RSUExampleScenario3.node[23].veinsmobility totalCO2Emission 330.65898297529
scalar RSUExampleScenario3.node[6].nic.phy80211p busyTime 0.0003406993006993
scalar RSUExampleScenario3.node[6].nic.mac1609_4 ReceivedUnicastPackets 0
scalar RSUExampleScenario3.node[6].nic.mac1609_4 ReceivedBroadcasts 33
scalar RSUExampleScenario3.node[6].nic.mac1609_4 SentPackets 2
scalar RSUExampleScenario3.node[6].nic.mac1609_4 SentAcknowledgements 0
scalar RSUExampleScenario3.node[6].nic.mac1609_4 RetriesExceeded 0
scalar RSUExampleScenario3.node[6].nic.mac1609_4 SNIRLostPackets 177
scalar RSUExampleScenario3.node[6].nic.mac1609_4 RXTXLostPackets 2
scalar RSUExampleScenario3.node[6].nic.mac1609_4 TotalLostPackets 179
scalar RSUExampleScenario3.node[6].nic.mac1609_4 DroppedPacketsInMac 0
scalar RSUExampleScenario3.node[6].nic.mac1609_4 TooLittleTime 0
scalar RSUExampleScenario3.node[6].nic.mac1609_4 TimesIntoBackoff 2
scalar RSUExampleScenario3.node[6].nic.mac1609_4 SlotsBackoff 3
scalar RSUExampleScenario3.node[6].nic.mac1609_4 NumInternalContention 0
scalar RSUExampleScenario3.node[6].nic.mac1609_4 totalBusyTime 0.039674021348
scalar RSUExampleScenario3.node[6].nic.mac1609_4 retriesExceeded:count 0
attr source org_car2x_veins_modules_mac_sigRetriesExceeded
scalar RSUExampleScenario3.node[6].nic.mac1609_4 sentAcks:count 0
attr source org_car2x_veins_modules_mac_sigSentAck
scalar RSUExampleScenario3.node[6].nic.mac1609_4 sentPackets:count 2
attr source org_car2x_veins_modules_mac_sigSentPacket
scalar RSUExampleScenario3.node[6].nic.mac1609_4 collisions:count 0
attr source org_car2x_veins_modules_mac_sigCollision
scalar RSUExampleScenario3.node[6].nic.mac1609_4 channelBusy:timeavg 0.00027744070872727
attr source org_car2x_veins_modules_mac_sigChannelBusy
scalar RSUExampleScenario3.node[6].veinsmobility startTime 8
scalar RSUExampleScenario3.node[6].veinsmobility totalTime 142
scalar RSUExampleScenario3.node[6].veinsmobility stopTime 151
scalar RSUExampleScenario3.node[6].veinsmobility minSpeed 2.2451491423897
scalar RSUExampleScenario3.node[6].veinsmobility maxSpeed 14.460929688382
scalar RSUExampleScenario3.node[6].veinsmobility totalDistance 1993.2336706785
scalar RSUExampleScenario3.node[6].veinsmobility totalCO2Emission 318.05930025177
scalar RSUExampleScenario3.node[37].nic.phy80211p busyTime 0.00034130769230769
scalar RSUExampleScenario3.node[37].nic.mac1609_4 ReceivedUnicastPackets 0
scalar RSUExampleScenario3.node[37].nic.mac1609_4 ReceivedBroadcasts 36
scalar RSUExampleScenario3.node[37].nic.mac1609_4 SentPackets 2
scalar RSUExampleScenario3.node[37].nic.mac1609_4 SentAcknowledgements 0
scalar RSUExampleScenario3.node[37].nic.mac1609_4 RetriesExceeded 0
scalar RSUExampleScenario3.node[37].nic.mac1609_4 SNIRLostPackets 117
scalar RSUExampleScenario3.node[37].nic.mac1609_4 RXTXLostPackets 1
scalar RSUExampleScenario3.node[37].nic.mac1609_4 TotalLostPackets 118
scalar RSUExampleScenario3.node[37].nic.mac1609_4 DroppedPacketsInMac 0
scalar RSUExampleScenario3.node[37].nic.mac1609_4 TooLittleTime 0
scalar RSUExampleScenario3.node[37].nic.mac1609_4 TimesIntoBackoff 2
scalar RSUExampleScenario3.node[37].nic.mac1609_4 SlotsBackoff 4
scalar RSUExampleScenario3.node[37].nic.mac1609_4 NumInternalContention 0
scalar RSUExampleScenario3.node[37].nic.mac1609_4 totalBusyTime 0.029698011172
scalar RSUExampleScenario3.node[37].nic.mac1609_4 retriesExceeded:count 0
attr source org_car2x_veins_modules_mac_sigRetriesExceeded
scalar RSUExampleScenario3.node[37].nic.mac1609_4 sentAcks:count 0
attr source org_car2x_veins_modules_mac_sigSentAck
scalar RSUExampleScenario3.node[37].nic.mac1609_4 sentPackets:count 2
attr source org_car2x_veins_modules_mac_sigSentPacket
scalar RSUExampleScenario3.node[37].nic.mac1609_4 collisions:count 0
attr source org_car2x_veins_modules_mac_sigCollision
scalar RSUExampleScenario3.node[37].nic.mac1609_4 channelBusy:timeavg 0.00028555779973077
attr source org_car2x_veins_modules_mac_sigChannelBusy
scalar RSUExampleScenario3.node[37].veinsmobility startTime 48
scalar RSUExampleScenario3.node[37].veinsmobility totalTime 103
scalar RSUExampleScenario3.node[37].veinsmobility stopTime 152
scalar RSUExampleScenario3.node[37].veinsmobility minSpeed 2.9832655421773
scalar RSUExampleScenario3.node[37].veinsmobility maxSpeed 23.636328734691
scalar RSUExampleScenario3.node[37].veinsmobility totalDistance 1975.8093235658
scalar RSUExampleScenario3.node[37].veinsmobility totalCO2Emission 380.07684818755
scalar RSUExampleScenario3.node[42].nic.phy80211p busyTime 0.00034448484848485
scalar RSUExampleScenario3.node[42].nic.mac1609_4 ReceivedUnicastPackets 0
scalar RSUExampleScenario3.node[42].nic.mac1609_4 ReceivedBroadcasts 53
scalar RSUExampleScenario3.node[42].nic.mac1609_4 SentPackets 2
scalar RSUExampleScenario3.node[42].nic.mac1609_4 SentAcknowledgements 0
scalar RSUExampleScenario3.node[42].nic.mac1609_4 RetriesExceeded 0
scalar RSUExampleScenario3.node[42].nic.mac1609_4 SNIRLostPackets 94
scalar RSUExampleScenario3.node[42].nic.mac1609_4 RXTXLostPackets 1
scalar RSUExampleScenario3.node[42].nic.mac1609_4 TotalLostPackets 95
scalar RSUExampleScenario3.node[42].nic.mac1609_4 DroppedPacketsInMac 0
scalar RSUExampleScenario3.node[42].nic.mac1609_4 TooLittleTime 0
scalar RSUExampleScenario3.node[42].nic.mac1609_4 TimesIntoBackoff 2
scalar RSUExampleScenario3.node[42].nic.mac1609_4 SlotsBackoff 1
scalar RSUExampleScenario3.node[42].nic.mac1609_4 NumInternalContention 0
scalar RSUExampleScenario3.node[42].nic.mac1609_4 totalBusyTime 0.028538011366
scalar RSUExampleScenario3.node[42].nic.mac1609_4 retriesExceeded:count 0
attr source org_car2x_veins_modules_mac_sigRetriesExceeded
scalar RSUExampleScenario3.node[42].nic.mac1609_4 sentAcks:count 0
attr source org_car2x_veins_modules_mac_sigSentAck
scalar RSUExampleScenario3.node[42].nic.mac1609_4 sentPackets:count 2
attr source org_car2x_veins_modules_mac_sigSentPacket
scalar RSUExampleScenario3.node[42].nic.mac1609_4 collisions:count 0
attr source org_car2x_veins_modules_mac_sigCollision
scalar RSUExampleScenario3.node[42].nic.mac1609_4 channelBusy:timeavg 0.00028826274107071
attr source org_car2x_veins_modules_mac_sigChannelBusy
scalar RSUExampleScenario3.node[42].veinsmobility startTime 56
scalar RSUExampleScenario3.node[42].veinsmobility totalTime 98
scalar RSUExampleScenario3.node[42].veinsmobility stopTime 155
scalar RSUExampleScenario3.node[42].veinsmobility minSpeed 3.7661975132614
scalar RSUExampleScenario3.node[42].veinsmobility maxSpeed 37.543954012729
scalar RSUExampleScenario3.node[42].veinsmobility totalDistance 1985.4100641845
scalar RSUExampleScenario3.node[42].veinsmobility totalCO2Emission 555.28193140362
scalar RSUExampleScenario3.node[30].nic.phy80211p busyTime 0.0003422
scalar RSUExampleScenario3.node[30].nic.mac1609_4 ReceivedUnicastPackets 0
scalar RSUExampleScenario3.node[30].nic.mac1609_4 ReceivedBroadcasts 35
scalar RSUExampleScenario3.node[30].nic.mac1609_4 SentPackets 2
scalar RSUExampleScenario3.node[30].nic.mac1609_4 SentAcknowledgements 0
scalar RSUExampleScenario3.node[30].nic.mac1609_4 RetriesExceeded 0
scalar RSUExampleScenario3.node[30].nic.mac1609_4 SNIRLostPackets 142
scalar RSUExampleScenario3.node[30].nic.mac1609_4 RXTXLostPackets 1
scalar RSUExampleScenario3.node[30].nic.mac1609_4 TotalLostPackets 143
scalar RSUExampleScenario3.node[30].nic.mac1609_4 DroppedPacketsInMac 0
scalar RSUExampleScenario3.node[30].nic.mac1609_4 TooLittleTime 0
scalar RSUExampleScenario3.node[30].nic.mac1609_4 TimesIntoBackoff 2
scalar RSUExampleScenario3.node[30].nic.mac1609_4 SlotsBackoff 0
scalar RSUExampleScenario3.node[30].nic.mac1609_4 NumInternalContention 0
scalar RSUExampleScenario3.node[30].nic.mac1609_4 totalBusyTime 0.034338015513
scalar RSUExampleScenario3.node[30].nic.mac1609_4 retriesExceeded:count 0
attr source org_car2x_veins_modules_mac_sigRetriesExceeded
scalar RSUExampleScenario3.node[30].nic.mac1609_4 sentAcks:count 0
attr source org_car2x_veins_modules_mac_sigSentAck
scalar RSUExampleScenario3.node[30].nic.mac1609_4 sentPackets:count 2
attr source org_car2x_veins_modules_mac_sigSentPacket
scalar RSUExampleScenario3.node[30].nic.mac1609_4 collisions:count 0
attr source org_car2x_veins_modules_mac_sigCollision
scalar RSUExampleScenario3.node[30].nic.mac1609_4 channelBusy:timeavg 0.000286150129275
attr source org_car2x_veins_modules_mac_sigChannelBusy
scalar RSUExampleScenario3.node[30].veinsmobility startTime 40
scalar RSUExampleScenario3.node[30].veinsmobility totalTime 119
scalar RSUExampleScenario3.node[30].veinsmobility stopTime 160
scalar RSUExampleScenario3.node[30].veinsmobility minSpeed 3.4139662290729
scalar RSUExampleScenario3.node[30].veinsmobility maxSpeed 17.339096949813
scalar RSUExampleScenario3.node[30].veinsmobility totalDistance 1987.5273018369
scalar RSUExampleScenario3.node[30].veinsmobility totalCO2Emission 318.63571036122
scalar RSUExampleScenario3.node[27].nic.phy80211p busyTime 0.00034888549618321
scalar RSUExampleScenario3.node[27].nic.mac1609_4 ReceivedUnicastPackets 0
scalar RSUExampleScenario3.node[27].nic.mac1609_4 ReceivedBroadcasts 39
scalar RSUExampleScenario3.node[27].nic.mac1609_4 SentPackets 2
scalar RSUExampleScenario3.node[27].nic.mac1609_4 SentAcknowledgements 0
scalar RSUExampleScenario3.node[27].nic.mac1609_4 RetriesExceeded 0
scalar RSUExampleScenario3.node[27].nic.mac1609_4 SNIRLostPackets 158
scalar RSUExampleScenario3.node[27].nic.mac1609_4 RXTXLostPackets 1
scalar RSUExampleScenario3.node[27].nic.mac1609_4 TotalLostPackets 159
scalar RSUExampleScenario3.node[27].nic.mac1609_4 DroppedPacketsInMac 0
scalar RSUExampleScenario3.node[27].nic.mac1609_4 TooLittleTime 0
scalar RSUExampleScenario3.node[27].nic.mac1609_4 TimesIntoBackoff 2
scalar RSUExampleScenario3.node[27].nic.mac1609_4 SlotsBackoff 1
scalar RSUExampleScenario3.node[27].nic.mac1609_4 NumInternalContention 0
scalar RSUExampleScenario3.node[27].nic.mac1609_4 totalBusyTime 0.037818011139
scalar RSUExampleScenario3.node[27].nic.mac1609_4 retriesExceeded:count 0
attr source org_car2x_veins_modules_mac_sigRetriesExceeded
scalar RSUExampleScenario3.node[27].nic.mac1609_4 sentAcks:count 0
attr source org_car2x_veins_modules_mac_sigSentAck
scalar RSUExampleScenario3.node[27].nic.mac1609_4 sentPackets:count 2
attr source org_car2x_veins_modules_mac_sigSentPacket
scalar RSUExampleScenario3.node[27].nic.mac1609_4 collisions:count 0
attr source org_car2x_veins_modules_mac_sigCollision
scalar RSUExampleScenario3.node[27].nic.mac1609_4 channelBusy:timeavg 0.0002886871079313
attr source org_car2x_veins_modules_mac_sigChannelBusy
scalar RSUExampleScenario3.node[27].veinsmobility startTime 35
scalar RSUExampleScenario3.node[27].veinsmobility totalTime 130
scalar RSUExampleScenario3.node[27].veinsmobility stopTime 166
scalar RSUExampleScenario3.node[27].veinsmobility minSpeed 3.5677951142842
scalar RSUExampleScenario3.node[27].veinsmobility maxSpeed 15.90256839765
scalar RSUExampleScenario3.node[27].veinsmobility totalDistance 1988.4278722227
scalar RSUExampleScenario3.node[27].veinsmobility totalCO2Emission 326.32111111825
scalar RSUExampleScenario3.node[16].nic.phy80211p busyTime 0.00034878911564626
scalar RSUExampleScenario3.node[16].nic.mac1609_4 ReceivedUnicastPackets 0
scalar RSUExampleScenario3.node[16].nic.mac1609_4 ReceivedBroadcasts 36
scalar RSUExampleScenario3.node[16].nic.mac1609_4 SentPackets 2
scalar RSUExampleScenario3.node[16].nic.mac1609_4 SentAcknowledgements 0
scalar RSUExampleScenario3.node[16].nic.mac1609_4 RetriesExceeded 0
scalar RSUExampleScenario3.node[16].nic.mac1609_4 SNIRLostPackets 185
scalar RSUExampleScenario3.node[16].nic.mac1609_4 RXTXLostPackets 1
scalar RSUExampleScenario3.node[16].nic.mac1609_4 TotalLostPackets 186
scalar RSUExampleScenario3.node[16].nic.mac1609_4 DroppedPacketsInMac 0
scalar RSUExampleScenario3.node[16].nic.mac1609_4 TooLittleTime 0
scalar RSUExampleScenario3.node[16].nic.mac1609_4 TimesIntoBackoff 2
scalar RSUExampleScenario3.node[16].nic.mac1609_4 SlotsBackoff 3
scalar RSUExampleScenario3.node[16].nic.mac1609_4 NumInternalContention 0
scalar RSUExampleScenario3.node[16].nic.mac1609_4 totalBusyTime 0.041762014914
scalar RSUExampleScenario3.node[16].nic.mac1609_4 retriesExceeded:count 0
attr source org_car2x_veins_modules_mac_sigRetriesExceeded
scalar RSUExampleScenario3.node[16].nic.mac1609_4 sentAcks:count 0
attr source org_car2x_veins_modules_mac_sigSentAck
scalar RSUExampleScenario3.node[16].nic.mac1609_4 sentPackets:count 2
attr source org_car2x_veins_modules_mac_sigSentPacket
scalar RSUExampleScenario3.node[16].nic.mac1609_4 collisions:count 0
attr source org_car2x_veins_modules_mac_sigCollision
scalar RSUExampleScenario3.node[16].nic.mac1609_4 channelBusy:timeavg 0.00028409533955102
attr source org_car2x_veins_modules_mac_sigChannelBusy
scalar RSUExampleScenario3.node[16].veinsmobility startTime 22
scalar RSUExampleScenario3.node[16].veinsmobility totalTime 146
scalar RSUExampleScenario3.node[16].veinsmobility stopTime 169
scalar RSUExampleScenario3.node[16].veinsmobility minSpeed 4.17656536565
scalar RSUExampleScenario3.node[16].veinsmobility maxSpeed 15.645892117858
scalar RSUExampleScenario3.node[16].veinsmobility totalDistance 1982.6724260323
scalar RSUExampleScenario3.node[16].veinsmobility totalCO2Emission 328.1241224214
scalar RSUExampleScenario3.node[38].nic.phy80211p busyTime 0.00034708661417323
scalar RSUExampleScenario3.node[38].nic.mac1609_4 ReceivedUnicastPackets 0
scalar RSUExampleScenario3.node[38].nic.mac1609_4 ReceivedBroadcasts 62
scalar RSUExampleScenario3.node[38].nic.mac1609_4 SentPackets 2
scalar RSUExampleScenario3.node[38].nic.mac1609_4 SentAcknowledgements 0
scalar RSUExampleScenario3.node[38].nic.mac1609_4 RetriesExceeded 0
scalar RSUExampleScenario3.node[38].nic.mac1609_4 SNIRLostPackets 128
scalar RSUExampleScenario3.node[38].nic.mac1609_4 RXTXLostPackets 0
scalar RSUExampleScenario3.node[38].nic.mac1609_4 TotalLostPackets 128
scalar RSUExampleScenario3.node[38].nic.mac1609_4 DroppedPacketsInMac 0
scalar RSUExampleScenario3.node[38].nic.mac1609_4 TooLittleTime 0
scalar RSUExampleScenario3.node[38].nic.mac1609_4 TimesIntoBackoff 2
scalar RSUExampleScenario3.node[38].nic.mac1609_4 SlotsBackoff 3
scalar RSUExampleScenario3.node[38].nic.mac1609_4 NumInternalContention 0
scalar RSUExampleScenario3.node[38].nic.mac1609_4 totalBusyTime 0.036194004016
scalar RSUExampleScenario3.node[38].nic.mac1609_4 retriesExceeded:count 0
attr source org_car2x_veins_modules_mac_sigRetriesExceeded
scalar RSUExampleScenario3.node[38].nic.mac1609_4 sentAcks:count 0
attr source org_car2x_veins_modules_mac_sigSentAck
scalar RSUExampleScenario3.node[38].nic.mac1609_4 sentPackets:count 2
attr source org_car2x_veins_modules_mac_sigSentPacket
scalar RSUExampleScenario3.node[38].nic.mac1609_4 collisions:count 0
attr source org_car2x_veins_modules_mac_sigCollision
scalar RSUExampleScenario3.node[38].nic.mac1609_4 channelBusy:timeavg 0.0002849921576063
attr source org_car2x_veins_modules_mac_sigChannelBusy
scalar RSUExampleScenario3.node[38].veinsmobility startTime 50
scalar RSUExampleScenario3.node[38].veinsmobility totalTime 126
scalar RSUExampleScenario3.node[38].veinsmobility stopTime 177
scalar RSUExampleScenario3.node[38].veinsmobility minSpeed 2.328282854218
scalar RSUExampleScenario3.node[38].veinsmobility maxSpeed 25.118867624903
scalar RSUExampleScenario3.node[38].veinsmobility totalDistance 1985.3556805784
scalar RSUExampleScenario3.node[38].veinsmobility totalCO2Emission 398.93142361359
scalar RSUExampleScenario3.node[34].nic.phy80211p busyTime 0.00034538345864662
scalar RSUExampleScenario3.node[34].nic.mac1609_4 ReceivedUnicastPackets 0
scalar RSUExampleScenario3.node[34].nic.mac1609_4 ReceivedBroadcasts 73
scalar RSUExampleScenario3.node[34].nic.mac1609_4 SentPackets 2
scalar RSUExampleScenario3.node[34].nic.mac1609_4 SentAcknowledgements 0
scalar RSUExampleScenario3.node[34].nic.mac1609_4 RetriesExceeded 0
scalar RSUExampleScenario3.node[34].nic.mac1609_4 SNIRLostPackets 125
scalar RSUExampleScenario3.node[34].nic.mac1609_4 RXTXLostPackets 0
scalar RSUExampleScenario3.node[34].nic.mac1609_4 TotalLostPackets 125
scalar RSUExampleScenario3.node[34].nic.mac1609_4 DroppedPacketsInMac 0
scalar RSUExampleScenario3.node[34].nic.mac1609_4 TooLittleTime 0
scalar RSUExampleScenario3.node[34].nic.mac1609_4 TimesIntoBackoff 2
scalar RSUExampleScenario3.node[34].nic.mac1609_4 SlotsBackoff 3
scalar RSUExampleScenario3.node[34].nic.mac1609_4 NumInternalContention 0
scalar RSUExampleScenario3.node[34].nic.mac1609_4 totalBusyTime 0.037818004278
scalar RSUExampleScenario3.node[34].nic.mac1609_4 retriesExceeded:count 0
attr source org_car2x_veins_modules_mac_sigRetriesExceeded
scalar RSUExampleScenario3.node[34].nic.mac1609_4 sentAcks:count 0
attr source org_car2x_veins_modules_mac_sigSentAck
scalar RSUExampleScenario3.node[34].nic.mac1609_4 sentPackets:count 2
attr source org_car2x_veins_modules_mac_sigSentPacket
scalar RSUExampleScenario3.node[34].nic.mac1609_4 collisions:count 0
attr source org_car2x_veins_modules_mac_sigCollision
scalar RSUExampleScenario3.node[34].nic.mac1609_4 channelBusy:timeavg 0.00028434589682707
attr source org_car2x_veins_modules_mac_sigChannelBusy
scalar RSUExampleScenario3.node[34].veinsmobility startTime 45
scalar RSUExampleScenario3.node[34].veinsmobility totalTime 132
scalar RSUExampleScenario3.node[34].veinsmobility stopTime 178
scalar RSUExampleScenario3.node[34].veinsmobility minSpeed 2.773775101208
scalar RSUExampleScenario3.node[34].veinsmobility maxSpeed 27.579554774018
scalar RSUExampleScenario3.node[34].veinsmobility totalDistance 1973.9887550217
scalar RSUExampleScenario3.node[34].veinsmobility totalCO2Emission 422.573457206
scalar RSUExampleScenario3.node[46].nic.phy80211p busyTime 0.0003450756302521
scalar RSUExampleScenario3.node[46].nic.mac1609_4 ReceivedUnicastPackets 0
scalar RSUExampleScenario3.node[46].nic.mac1609_4 ReceivedBroadcasts 55
scalar RSUExampleScenario3.node[46].nic.mac1609_4 SentPackets 2
scalar RSUExampleScenario3.node[46].nic.mac1609_4 SentAcknowledgements 0
scalar RSUExampleScenario3.node[46].nic.mac1609_4 RetriesExceeded 0
scalar RSUExampleScenario3.node[46].nic.mac1609_4 SNIRLostPackets 122
scalar RSUExampleScenario3.node[46].nic.mac1609_4 RXTXLostPackets 1
scalar RSUExampleScenario3.node[46].nic.mac1609_4 TotalLostPackets 123
scalar RSUExampleScenario3.node[46].nic.mac1609_4 DroppedPacketsInMac 0
scalar RSUExampleScenario3.node[46].nic.mac1609_4 TooLittleTime 0
scalar RSUExampleScenario3.node[46].nic.mac1609_4 TimesIntoBackoff 2
scalar RSUExampleScenario3.node[46].nic.mac1609_4 SlotsBackoff 6
scalar RSUExampleScenario3.node[46].nic.mac1609_4 NumInternalContention 0
scalar RSUExampleScenario3.node[46].nic.mac1609_4 totalBusyTime 0.03341002336
scalar RSUExampleScenario3.node[46].nic.mac1609_4 retriesExceeded:count 0
attr source org_car2x_veins_modules_mac_sigRetriesExceeded
scalar RSUExampleScenario3.node[46].nic.mac1609_4 sentAcks:count 0
attr source org_car2x_veins_modules_mac_sigSentAck
scalar RSUExampleScenario3.node[46].nic.mac1609_4 sentPackets:count 2
attr source org_car2x_veins_modules_mac_sigSentPacket
scalar RSUExampleScenario3.node[46].nic.mac1609_4 collisions:count 0
attr source org_car2x_veins_modules_mac_sigCollision
scalar RSUExampleScenario3.node[46].nic.mac1609_4 channelBusy:timeavg 0.00028075649882353
attr source org_car2x_veins_modules_mac_sigChannelBusy
scalar RSUExampleScenario3.node[46].veinsmobility startTime 61
scalar RSUExampleScenario3.node[46].veinsmobility totalTime 118
scalar RSUExampleScenario3.node[46].veinsmobility stopTime 180
scalar RSUExampleScenario3.node[46].veinsmobility minSpeed 3.1811570800655
scalar RSUExampleScenario3.node[46].veinsmobility maxSpeed 35.394245611117
scalar RSUExampleScenario3.node[46].veinsmobility totalDistance 1994.6146669609
scalar RSUExampleScenario3.node[46].veinsmobility totalCO2Emission 487.04053990998
scalar RSUExampleScenario3.node[44].nic.phy80211p busyTime 0.00034328455284553
scalar RSUExampleScenario3.node[44].nic.mac1609_4 ReceivedUnicastPackets 0
scalar RSUExampleScenario3.node[44].nic.mac1609_4 ReceivedBroadcasts 54
scalar RSUExampleScenario3.node[44].nic.mac1609_4 SentPackets 2
scalar RSUExampleScenario3.node[44].nic.mac1609_4 SentAcknowledgements 0
scalar RSUExampleScenario3.node[44].nic.mac1609_4 RetriesExceeded 0
scalar RSUExampleScenario3.node[44].nic.mac1609_4 SNIRLostPackets 128
scalar RSUExampleScenario3.node[44].nic.mac1609_4 RXTXLostPackets 0
scalar RSUExampleScenario3.node[44].nic.mac1609_4 TotalLostPackets 128
scalar RSUExampleScenario3.node[44].nic.mac1609_4 DroppedPacketsInMac 0
scalar RSUExampleScenario3.node[44].nic.mac1609_4 TooLittleTime 0
scalar RSUExampleScenario3.node[44].nic.mac1609_4 TimesIntoBackoff 2
scalar RSUExampleScenario3.node[44].nic.mac1609_4 SlotsBackoff 1
scalar RSUExampleScenario3.node[44].nic.mac1609_4 NumInternalContention 0
scalar RSUExampleScenario3.node[44].nic.mac1609_4 totalBusyTime 0.034338004713
scalar RSUExampleScenario3.node[44].nic.mac1609_4 retriesExceeded:count 0
attr source org_car2x_veins_modules_mac_sigRetriesExceeded
scalar RSUExampleScenario3.node[44].nic.mac1609_4 sentAcks:count 0
attr source org_car2x_veins_modules_mac_sigSentAck
scalar RSUExampleScenario3.node[44].nic.mac1609_4 sentPackets:count 2
attr source org_car2x_veins_modules_mac_sigSentPacket
scalar RSUExampleScenario3.node[44].nic.mac1609_4 collisions:count 0
attr source org_car2x_veins_modules_mac_sigCollision
scalar RSUExampleScenario3.node[44].nic.mac1609_4 channelBusy:timeavg 0.00027917077002439
attr source org_car2x_veins_modules_mac_sigChannelBusy
scalar RSUExampleScenario3.node[44].veinsmobility startTime 58
scalar RSUExampleScenario3.node[44].veinsmobility totalTime 122
scalar RSUExampleScenario3.node[44].veinsmobility stopTime 181
scalar RSUExampleScenario3.node[44].veinsmobility minSpeed 2.5287756429143
[...]
scalar RSUExampleScenario3.node[1057].nic.mac1609_4 SentPackets 2
scalar RSUExampleScenario3.node[1057].nic.mac1609_4 SentAcknowledgements 0
scalar RSUExampleScenario3.node[1057].nic.mac1609_4 RetriesExceeded 0
scalar RSUExampleScenario3.node[1057].nic.mac1609_4 SNIRLostPackets 6
scalar RSUExampleScenario3.node[1057].nic.mac1609_4 RXTXLostPackets 0
scalar RSUExampleScenario3.node[1057].nic.mac1609_4 TotalLostPackets 6
scalar RSUExampleScenario3.node[1057].nic.mac1609_4 DroppedPacketsInMac 0
scalar RSUExampleScenario3.node[1057].nic.mac1609_4 TooLittleTime 0
scalar RSUExampleScenario3.node[1057].nic.mac1609_4 TimesIntoBackoff 2
scalar RSUExampleScenario3.node[1057].nic.mac1609_4 SlotsBackoff 2
scalar RSUExampleScenario3.node[1057].nic.mac1609_4 NumInternalContention 0
scalar RSUExampleScenario3.node[1057].nic.mac1609_4 totalBusyTime 0.003018000724
scalar RSUExampleScenario3.node[1057].nic.mac1609_4 retriesExceeded:count 0
attr source org_car2x_veins_modules_mac_sigRetriesExceeded
scalar RSUExampleScenario3.node[1057].nic.mac1609_4 sentAcks:count 0
attr source org_car2x_veins_modules_mac_sigSentAck
scalar RSUExampleScenario3.node[1057].nic.mac1609_4 sentPackets:count 2
attr source org_car2x_veins_modules_mac_sigSentPacket
scalar RSUExampleScenario3.node[1057].nic.mac1609_4 collisions:count 0
attr source org_car2x_veins_modules_mac_sigCollision
scalar RSUExampleScenario3.node[1057].nic.mac1609_4 channelBusy:timeavg 0.00027436370218182
attr source org_car2x_veins_modules_mac_sigChannelBusy
scalar RSUExampleScenario3.node[1057].veinsmobility startTime 1392
scalar RSUExampleScenario3.node[1057].veinsmobility totalTime 11
scalar RSUExampleScenario3.node[1057].veinsmobility stopTime 1403
scalar RSUExampleScenario3.node[1057].veinsmobility minSpeed 4.1019743000062
scalar RSUExampleScenario3.node[1057].veinsmobility maxSpeed 13.307129718568
scalar RSUExampleScenario3.node[1057].veinsmobility totalDistance 96.011548158577
scalar RSUExampleScenario3.node[1057].veinsmobility totalCO2Emission 38.688762518295
scalar RSUExampleScenario3.node[1058].nic.phy80211p busyTime 0.000232
scalar RSUExampleScenario3.node[1058].nic.mac1609_4 ReceivedUnicastPackets 0
scalar RSUExampleScenario3.node[1058].nic.mac1609_4 ReceivedBroadcasts 5
scalar RSUExampleScenario3.node[1058].nic.mac1609_4 SentPackets 2
scalar RSUExampleScenario3.node[1058].nic.mac1609_4 SentAcknowledgements 0
scalar RSUExampleScenario3.node[1058].nic.mac1609_4 RetriesExceeded 0
scalar RSUExampleScenario3.node[1058].nic.mac1609_4 SNIRLostPackets 4
scalar RSUExampleScenario3.node[1058].nic.mac1609_4 RXTXLostPackets 1
scalar RSUExampleScenario3.node[1058].nic.mac1609_4 TotalLostPackets 5
scalar RSUExampleScenario3.node[1058].nic.mac1609_4 DroppedPacketsInMac 0
scalar RSUExampleScenario3.node[1058].nic.mac1609_4 TooLittleTime 0
scalar RSUExampleScenario3.node[1058].nic.mac1609_4 TimesIntoBackoff 2
scalar RSUExampleScenario3.node[1058].nic.mac1609_4 SlotsBackoff 4
scalar RSUExampleScenario3.node[1058].nic.mac1609_4 NumInternalContention 0
scalar RSUExampleScenario3.node[1058].nic.mac1609_4 totalBusyTime 0.002090012584
scalar RSUExampleScenario3.node[1058].nic.mac1609_4 retriesExceeded:count 0
attr source org_car2x_veins_modules_mac_sigRetriesExceeded
scalar RSUExampleScenario3.node[1058].nic.mac1609_4 sentAcks:count 0
attr source org_car2x_veins_modules_mac_sigSentAck
scalar RSUExampleScenario3.node[1058].nic.mac1609_4 sentPackets:count 2
attr source org_car2x_veins_modules_mac_sigSentPacket
scalar RSUExampleScenario3.node[1058].nic.mac1609_4 collisions:count 0
attr source org_car2x_veins_modules_mac_sigCollision
scalar RSUExampleScenario3.node[1058].nic.mac1609_4 channelBusy:timeavg 0.00023222362044444
attr source org_car2x_veins_modules_mac_sigChannelBusy
scalar RSUExampleScenario3.node[1058].veinsmobility startTime 1394
scalar RSUExampleScenario3.node[1058].veinsmobility totalTime 9
scalar RSUExampleScenario3.node[1058].veinsmobility stopTime 1403
scalar RSUExampleScenario3.node[1058].veinsmobility minSpeed 3.1511337038812
scalar RSUExampleScenario3.node[1058].veinsmobility maxSpeed 13.124144079058
scalar RSUExampleScenario3.node[1058].veinsmobility totalDistance 81.979061310622
scalar RSUExampleScenario3.node[1058].veinsmobility totalCO2Emission 34.997179924893
scalar RSUExampleScenario3.node[1059].nic.phy80211p busyTime 0.000232
scalar RSUExampleScenario3.node[1059].nic.mac1609_4 ReceivedUnicastPackets 0
scalar RSUExampleScenario3.node[1059].nic.mac1609_4 ReceivedBroadcasts 5
scalar RSUExampleScenario3.node[1059].nic.mac1609_4 SentPackets 2
scalar RSUExampleScenario3.node[1059].nic.mac1609_4 SentAcknowledgements 0
scalar RSUExampleScenario3.node[1059].nic.mac1609_4 RetriesExceeded 0
scalar RSUExampleScenario3.node[1059].nic.mac1609_4 SNIRLostPackets 4
scalar RSUExampleScenario3.node[1059].nic.mac1609_4 RXTXLostPackets 1
scalar RSUExampleScenario3.node[1059].nic.mac1609_4 TotalLostPackets 5
scalar RSUExampleScenario3.node[1059].nic.mac1609_4 DroppedPacketsInMac 0
scalar RSUExampleScenario3.node[1059].nic.mac1609_4 TooLittleTime 0
scalar RSUExampleScenario3.node[1059].nic.mac1609_4 TimesIntoBackoff 2
scalar RSUExampleScenario3.node[1059].nic.mac1609_4 SlotsBackoff 2
scalar RSUExampleScenario3.node[1059].nic.mac1609_4 NumInternalContention 0
scalar RSUExampleScenario3.node[1059].nic.mac1609_4 totalBusyTime 0.002090011115
scalar RSUExampleScenario3.node[1059].nic.mac1609_4 retriesExceeded:count 0
attr source org_car2x_veins_modules_mac_sigRetriesExceeded
scalar RSUExampleScenario3.node[1059].nic.mac1609_4 sentAcks:count 0
attr source org_car2x_veins_modules_mac_sigSentAck
scalar RSUExampleScenario3.node[1059].nic.mac1609_4 sentPackets:count 2
attr source org_car2x_veins_modules_mac_sigSentPacket
scalar RSUExampleScenario3.node[1059].nic.mac1609_4 collisions:count 0
attr source org_car2x_veins_modules_mac_sigCollision
scalar RSUExampleScenario3.node[1059].nic.mac1609_4 channelBusy:timeavg 0.00023222345722222
attr source org_car2x_veins_modules_mac_sigChannelBusy
scalar RSUExampleScenario3.node[1059].veinsmobility startTime 1394
scalar RSUExampleScenario3.node[1059].veinsmobility totalTime 9
scalar RSUExampleScenario3.node[1059].veinsmobility stopTime 1403
scalar RSUExampleScenario3.node[1059].veinsmobility minSpeed 2.9712447869451
scalar RSUExampleScenario3.node[1059].veinsmobility maxSpeed 13.170458057534
scalar RSUExampleScenario3.node[1059].veinsmobility totalDistance 75.945433299227
scalar RSUExampleScenario3.node[1059].veinsmobility totalCO2Emission 36.40322106665
scalar RSUExampleScenario3.node[1060].nic.phy80211p busyTime 0.00019333333333333
scalar RSUExampleScenario3.node[1060].nic.mac1609_4 ReceivedUnicastPackets 0
scalar RSUExampleScenario3.node[1060].nic.mac1609_4 ReceivedBroadcasts 3
scalar RSUExampleScenario3.node[1060].nic.mac1609_4 SentPackets 2
scalar RSUExampleScenario3.node[1060].nic.mac1609_4 SentAcknowledgements 0
scalar RSUExampleScenario3.node[1060].nic.mac1609_4 RetriesExceeded 0
scalar RSUExampleScenario3.node[1060].nic.mac1609_4 SNIRLostPackets 2
scalar RSUExampleScenario3.node[1060].nic.mac1609_4 RXTXLostPackets 1
scalar RSUExampleScenario3.node[1060].nic.mac1609_4 TotalLostPackets 3
scalar RSUExampleScenario3.node[1060].nic.mac1609_4 DroppedPacketsInMac 0
scalar RSUExampleScenario3.node[1060].nic.mac1609_4 TooLittleTime 0
scalar RSUExampleScenario3.node[1060].nic.mac1609_4 TimesIntoBackoff 2
scalar RSUExampleScenario3.node[1060].nic.mac1609_4 SlotsBackoff 5
scalar RSUExampleScenario3.node[1060].nic.mac1609_4 NumInternalContention 0
scalar RSUExampleScenario3.node[1060].nic.mac1609_4 totalBusyTime 0.001394011831
scalar RSUExampleScenario3.node[1060].nic.mac1609_4 retriesExceeded:count 0
attr source org_car2x_veins_modules_mac_sigRetriesExceeded
scalar RSUExampleScenario3.node[1060].nic.mac1609_4 sentAcks:count 0
attr source org_car2x_veins_modules_mac_sigSentAck
scalar RSUExampleScenario3.node[1060].nic.mac1609_4 sentPackets:count 2
attr source org_car2x_veins_modules_mac_sigSentPacket
scalar RSUExampleScenario3.node[1060].nic.mac1609_4 collisions:count 0
attr source org_car2x_veins_modules_mac_sigCollision
scalar RSUExampleScenario3.node[1060].nic.mac1609_4 channelBusy:timeavg 0.00023233530516667
attr source org_car2x_veins_modules_mac_sigChannelBusy
scalar RSUExampleScenario3.node[1060].veinsmobility startTime 1397
scalar RSUExampleScenario3.node[1060].veinsmobility totalTime 6
scalar RSUExampleScenario3.node[1060].veinsmobility stopTime 1403
scalar RSUExampleScenario3.node[1060].veinsmobility minSpeed 3.7009694337615
scalar RSUExampleScenario3.node[1060].veinsmobility maxSpeed 9.9695966601958
scalar RSUExampleScenario3.node[1060].veinsmobility totalDistance 43.351363234183
scalar RSUExampleScenario3.node[1060].veinsmobility totalCO2Emission 19.757757731077
scalar RSUExampleScenario3.node[1061].nic.phy80211p busyTime 0.00019333333333333
scalar RSUExampleScenario3.node[1061].nic.mac1609_4 ReceivedUnicastPackets 0
scalar RSUExampleScenario3.node[1061].nic.mac1609_4 ReceivedBroadcasts 3
scalar RSUExampleScenario3.node[1061].nic.mac1609_4 SentPackets 2
scalar RSUExampleScenario3.node[1061].nic.mac1609_4 SentAcknowledgements 0
scalar RSUExampleScenario3.node[1061].nic.mac1609_4 RetriesExceeded 0
scalar RSUExampleScenario3.node[1061].nic.mac1609_4 SNIRLostPackets 2
scalar RSUExampleScenario3.node[1061].nic.mac1609_4 RXTXLostPackets 1
scalar RSUExampleScenario3.node[1061].nic.mac1609_4 TotalLostPackets 3
scalar RSUExampleScenario3.node[1061].nic.mac1609_4 DroppedPacketsInMac 0
scalar RSUExampleScenario3.node[1061].nic.mac1609_4 TooLittleTime 0
scalar RSUExampleScenario3.node[1061].nic.mac1609_4 TimesIntoBackoff 2
scalar RSUExampleScenario3.node[1061].nic.mac1609_4 SlotsBackoff 2
scalar RSUExampleScenario3.node[1061].nic.mac1609_4 NumInternalContention 0
scalar RSUExampleScenario3.node[1061].nic.mac1609_4 totalBusyTime 0.00139401205
scalar RSUExampleScenario3.node[1061].nic.mac1609_4 retriesExceeded:count 0
attr source org_car2x_veins_modules_mac_sigRetriesExceeded
scalar RSUExampleScenario3.node[1061].nic.mac1609_4 sentAcks:count 0
attr source org_car2x_veins_modules_mac_sigSentAck
scalar RSUExampleScenario3.node[1061].nic.mac1609_4 sentPackets:count 2
attr source org_car2x_veins_modules_mac_sigSentPacket
scalar RSUExampleScenario3.node[1061].nic.mac1609_4 collisions:count 0
attr source org_car2x_veins_modules_mac_sigCollision
scalar RSUExampleScenario3.node[1061].nic.mac1609_4 channelBusy:timeavg 0.00023233534166667
attr source org_car2x_veins_modules_mac_sigChannelBusy
scalar RSUExampleScenario3.node[1061].veinsmobility startTime 1397
scalar RSUExampleScenario3.node[1061].veinsmobility totalTime 6
scalar RSUExampleScenario3.node[1061].veinsmobility stopTime 1403
scalar RSUExampleScenario3.node[1061].veinsmobility minSpeed 3.773615654277
scalar RSUExampleScenario3.node[1061].veinsmobility maxSpeed 13.238927252431
scalar RSUExampleScenario3.node[1061].veinsmobility totalDistance 45.356614421797
scalar RSUExampleScenario3.node[1061].veinsmobility totalCO2Emission 29.854523960108
scalar RSUExampleScenario3.node[1062].nic.phy80211p busyTime 5.8e-05
scalar RSUExampleScenario3.node[1062].nic.mac1609_4 ReceivedUnicastPackets 0
scalar RSUExampleScenario3.node[1062].nic.mac1609_4 ReceivedBroadcasts 1
scalar RSUExampleScenario3.node[1062].nic.mac1609_4 SentPackets 2
scalar RSUExampleScenario3.node[1062].nic.mac1609_4 SentAcknowledgements 0
scalar RSUExampleScenario3.node[1062].nic.mac1609_4 RetriesExceeded 0
scalar RSUExampleScenario3.node[1062].nic.mac1609_4 SNIRLostPackets 0
scalar RSUExampleScenario3.node[1062].nic.mac1609_4 RXTXLostPackets 1
scalar RSUExampleScenario3.node[1062].nic.mac1609_4 TotalLostPackets 1
scalar RSUExampleScenario3.node[1062].nic.mac1609_4 DroppedPacketsInMac 0
scalar RSUExampleScenario3.node[1062].nic.mac1609_4 TooLittleTime 0
scalar RSUExampleScenario3.node[1062].nic.mac1609_4 TimesIntoBackoff 2
scalar RSUExampleScenario3.node[1062].nic.mac1609_4 SlotsBackoff 1
scalar RSUExampleScenario3.node[1062].nic.mac1609_4 NumInternalContention 0
scalar RSUExampleScenario3.node[1062].nic.mac1609_4 totalBusyTime 0.000698010674
scalar RSUExampleScenario3.node[1062].nic.mac1609_4 retriesExceeded:count 0
attr source org_car2x_veins_modules_mac_sigRetriesExceeded
scalar RSUExampleScenario3.node[1062].nic.mac1609_4 sentAcks:count 0
attr source org_car2x_veins_modules_mac_sigSentAck
scalar RSUExampleScenario3.node[1062].nic.mac1609_4 sentPackets:count 2
attr source org_car2x_veins_modules_mac_sigSentPacket
scalar RSUExampleScenario3.node[1062].nic.mac1609_4 collisions:count 0
attr source org_car2x_veins_modules_mac_sigCollision
scalar RSUExampleScenario3.node[1062].nic.mac1609_4 channelBusy:timeavg 0.0001745026685
attr source org_car2x_veins_modules_mac_sigChannelBusy
scalar RSUExampleScenario3.node[1062].veinsmobility startTime 1399
scalar RSUExampleScenario3.node[1062].veinsmobility totalTime 4
scalar RSUExampleScenario3.node[1062].veinsmobility stopTime 1403
scalar RSUExampleScenario3.node[1062].veinsmobility minSpeed 2.4753589711501
scalar RSUExampleScenario3.node[1062].veinsmobility maxSpeed 8.5774436589633
scalar RSUExampleScenario3.node[1062].veinsmobility totalDistance 18.22543474971
scalar RSUExampleScenario3.node[1062].veinsmobility totalCO2Emission 13.987654277391
scalar RSUExampleScenario3.node[1063].nic.phy80211p busyTime 5.8e-05
scalar RSUExampleScenario3.node[1063].nic.mac1609_4 ReceivedUnicastPackets 0
scalar RSUExampleScenario3.node[1063].nic.mac1609_4 ReceivedBroadcasts 1
scalar RSUExampleScenario3.node[1063].nic.mac1609_4 SentPackets 2
scalar RSUExampleScenario3.node[1063].nic.mac1609_4 SentAcknowledgements 0
scalar RSUExampleScenario3.node[1063].nic.mac1609_4 RetriesExceeded 0
scalar RSUExampleScenario3.node[1063].nic.mac1609_4 SNIRLostPackets 0
scalar RSUExampleScenario3.node[1063].nic.mac1609_4 RXTXLostPackets 1
scalar RSUExampleScenario3.node[1063].nic.mac1609_4 TotalLostPackets 1
scalar RSUExampleScenario3.node[1063].nic.mac1609_4 DroppedPacketsInMac 0
scalar RSUExampleScenario3.node[1063].nic.mac1609_4 TooLittleTime 0
scalar RSUExampleScenario3.node[1063].nic.mac1609_4 TimesIntoBackoff 2
scalar RSUExampleScenario3.node[1063].nic.mac1609_4 SlotsBackoff 3
scalar RSUExampleScenario3.node[1063].nic.mac1609_4 NumInternalContention 0
scalar RSUExampleScenario3.node[1063].nic.mac1609_4 totalBusyTime 0.000698010674
scalar RSUExampleScenario3.node[1063].nic.mac1609_4 retriesExceeded:count 0
attr source org_car2x_veins_modules_mac_sigRetriesExceeded
scalar RSUExampleScenario3.node[1063].nic.mac1609_4 sentAcks:count 0
attr source org_car2x_veins_modules_mac_sigSentAck
scalar RSUExampleScenario3.node[1063].nic.mac1609_4 sentPackets:count 2
attr source org_car2x_veins_modules_mac_sigSentPacket
scalar RSUExampleScenario3.node[1063].nic.mac1609_4 collisions:count 0
attr source org_car2x_veins_modules_mac_sigCollision
scalar RSUExampleScenario3.node[1063].nic.mac1609_4 channelBusy:timeavg 0.0001745026685
attr source org_car2x_veins_modules_mac_sigChannelBusy
scalar RSUExampleScenario3.node[1063].veinsmobility startTime 1399
scalar RSUExampleScenario3.node[1063].veinsmobility totalTime 4
scalar RSUExampleScenario3.node[1063].veinsmobility stopTime 1403
scalar RSUExampleScenario3.node[1063].veinsmobility minSpeed 2.5256733233214
scalar RSUExampleScenario3.node[1063].veinsmobility maxSpeed 8.5066450898617
scalar RSUExampleScenario3.node[1063].veinsmobility totalDistance 18.143643360827
scalar RSUExampleScenario3.node[1063].veinsmobility totalCO2Emission 13.743413645377
scalar RSUExampleScenario3.node[1064].nic.phy80211p busyTime 0
scalar RSUExampleScenario3.node[1064].nic.mac1609_4 ReceivedUnicastPackets 0
scalar RSUExampleScenario3.node[1064].nic.mac1609_4 ReceivedBroadcasts 0
scalar RSUExampleScenario3.node[1064].nic.mac1609_4 SentPackets 0
scalar RSUExampleScenario3.node[1064].nic.mac1609_4 SentAcknowledgements 0
scalar RSUExampleScenario3.node[1064].nic.mac1609_4 RetriesExceeded 0
scalar RSUExampleScenario3.node[1064].nic.mac1609_4 SNIRLostPackets 0
scalar RSUExampleScenario3.node[1064].nic.mac1609_4 RXTXLostPackets 0
scalar RSUExampleScenario3.node[1064].nic.mac1609_4 TotalLostPackets 0
scalar RSUExampleScenario3.node[1064].nic.mac1609_4 DroppedPacketsInMac 0
scalar RSUExampleScenario3.node[1064].nic.mac1609_4 TooLittleTime 0
scalar RSUExampleScenario3.node[1064].nic.mac1609_4 TimesIntoBackoff 0
scalar RSUExampleScenario3.node[1064].nic.mac1609_4 SlotsBackoff 0
scalar RSUExampleScenario3.node[1064].nic.mac1609_4 NumInternalContention 0
scalar RSUExampleScenario3.node[1064].nic.mac1609_4 totalBusyTime 0
scalar RSUExampleScenario3.node[1064].nic.mac1609_4 retriesExceeded:count 0
attr source org_car2x_veins_modules_mac_sigRetriesExceeded
scalar RSUExampleScenario3.node[1064].nic.mac1609_4 sentAcks:count 0
attr source org_car2x_veins_modules_mac_sigSentAck
scalar RSUExampleScenario3.node[1064].nic.mac1609_4 sentPackets:count 0
attr source org_car2x_veins_modules_mac_sigSentPacket
scalar RSUExampleScenario3.node[1064].nic.mac1609_4 collisions:count 0
attr source org_car2x_veins_modules_mac_sigCollision
scalar RSUExampleScenario3.node[1064].nic.mac1609_4 channelBusy:timeavg 0
attr source org_car2x_veins_modules_mac_sigChannelBusy
scalar RSUExampleScenario3.node[1064].veinsmobility startTime 1402
scalar RSUExampleScenario3.node[1064].veinsmobility totalTime 1
scalar RSUExampleScenario3.node[1064].veinsmobility stopTime 1403
scalar RSUExampleScenario3.node[1064].veinsmobility minSpeed 3.3445121003567
scalar RSUExampleScenario3.node[1064].veinsmobility maxSpeed 3.3445121003567
scalar RSUExampleScenario3.node[1064].veinsmobility totalDistance 2.3910892175681
scalar RSUExampleScenario3.node[1064].veinsmobility totalCO2Emission 0
scalar RSUExampleScenario3.node[1065].nic.phy80211p busyTime 0
scalar RSUExampleScenario3.node[1065].nic.mac1609_4 ReceivedUnicastPackets 0
scalar RSUExampleScenario3.node[1065].nic.mac1609_4 ReceivedBroadcasts 0
scalar RSUExampleScenario3.node[1065].nic.mac1609_4 SentPackets 0
scalar RSUExampleScenario3.node[1065].nic.mac1609_4 SentAcknowledgements 0
scalar RSUExampleScenario3.node[1065].nic.mac1609_4 RetriesExceeded 0
scalar RSUExampleScenario3.node[1065].nic.mac1609_4 SNIRLostPackets 0
scalar RSUExampleScenario3.node[1065].nic.mac1609_4 RXTXLostPackets 0
scalar RSUExampleScenario3.node[1065].nic.mac1609_4 TotalLostPackets 0
scalar RSUExampleScenario3.node[1065].nic.mac1609_4 DroppedPacketsInMac 0
scalar RSUExampleScenario3.node[1065].nic.mac1609_4 TooLittleTime 0
scalar RSUExampleScenario3.node[1065].nic.mac1609_4 TimesIntoBackoff 0
scalar RSUExampleScenario3.node[1065].nic.mac1609_4 SlotsBackoff 0
scalar RSUExampleScenario3.node[1065].nic.mac1609_4 NumInternalContention 0
scalar RSUExampleScenario3.node[1065].nic.mac1609_4 totalBusyTime 0
scalar RSUExampleScenario3.node[1065].nic.mac1609_4 retriesExceeded:count 0
attr source org_car2x_veins_modules_mac_sigRetriesExceeded
scalar RSUExampleScenario3.node[1065].nic.mac1609_4 sentAcks:count 0
attr source org_car2x_veins_modules_mac_sigSentAck
scalar RSUExampleScenario3.node[1065].nic.mac1609_4 sentPackets:count 0
attr source org_car2x_veins_modules_mac_sigSentPacket
scalar RSUExampleScenario3.node[1065].nic.mac1609_4 collisions:count 0
attr source org_car2x_veins_modules_mac_sigCollision
scalar RSUExampleScenario3.node[1065].nic.mac1609_4 channelBusy:timeavg 0
attr source org_car2x_veins_modules_mac_sigChannelBusy
scalar RSUExampleScenario3.node[1065].veinsmobility startTime 1402
scalar RSUExampleScenario3.node[1065].veinsmobility totalTime 1
scalar RSUExampleScenario3.node[1065].veinsmobility stopTime 1403
scalar RSUExampleScenario3.node[1065].veinsmobility minSpeed 3.1005062044278
scalar RSUExampleScenario3.node[1065].veinsmobility maxSpeed 3.1005062044278
scalar RSUExampleScenario3.node[1065].veinsmobility totalDistance 2.3046575289135
scalar RSUExampleScenario3.node[1065].veinsmobility totalCO2Emission 0

