file 27386463 1754989667                                        
version 2
run Noattack-0-20250812-10:07:31-24414
attr configname Noattack
attr datetime 20250812-10:07:31
attr experiment Noattack
attr inifile omnetpp.ini
attr iterationvars ""
attr iterationvarsf ""
attr measurement ""
attr network RSUExampleScenario3
attr processid 24414
attr repetition 0
attr replication #0
attr resultdir results
attr runnumber 0
attr seedset 0
param *.hacker[*].appl.attack 0
param *.hacker[*].appl.attackPolicy -1
param *.hacker[*].appl.nDosMessages 0
param *.hacker[*].appl.successProbability 0
param *.hacker[*].appl.attackInterval 0s
param *.hacker[*].appl.beaconInterval 1s
param *.hacker[*].appl.speedAttackOffset "0 mps"
param *.playgroundSizeX 4000m
param *.playgroundSizeY 4000m
param *.playgroundSizeZ 50m
param *.annotations.draw true
param *.manager.updateInterval 1s
param *.manager.host "\"localhost\""
param *.manager.port 9999
param *.manager.autoShutdown true
param *.manager.launchConfig "xmldoc(\"lostest1.launchd.xml\")"
param *.connectionManager.sendDirect true
param *.connectionManager.maxInterfDist 2600m
param *.connectionManager.drawMaxIntfDist false
param *.**.nic.mac1609_4.useServiceChannel false
param *.node[*].nic.mac1609_4.txPower 20mW
param *.**.nic.mac1609_4.bitrate 6Mbps
param *.**.nic.phy80211p.minPowerLevel -110dBm
param *.**.nic.phy80211p.useNoiseFloor true
param *.**.nic.phy80211p.noiseFloor -98dBm
param *.**.nic.phy80211p.decider "xmldoc(\"config.xml\")"
param *.**.nic.phy80211p.analogueModels "xmldoc(\"config.xml\")"
param *.**.nic.phy80211p.usePropagationDelay true
param *.**.nic.phy80211p.antenna "xmldoc(\"antenna.xml\", \"/root/Antenna[@id='monopole']\")"
param *.node[*].nic.phy80211p.antennaOffsetY "0 m"
param *.node[*].nic.phy80211p.antennaOffsetZ "1.895 m"
param *.node[*].applType "\"MyVeinsApp\""
param *.node[*].appl.headerLength "80 bit"
param *.node[*].appl.sendBeacons true
param *.node[*].appl.dataOnSch false
param *.node[*].appl.beaconInterval 1s
param *.node[*].veinsmobility.x 0
param *.node[*].veinsmobility.y 0
param *.node[*].veinsmobility.z 0
param *.node[*].veinsmobility.setHostSpeed false
param *.manager.moduleType "\"hacker=org.car2x.veins.nodes.Car target=org.car2x.veins.nodes.Car *=org.car2x.veins.nodes.Car\""
param *.manager.moduleName "\"hacker=hacker target=target *=node\""
param *.target[*].applType "\"TargetApp\""
param *.target[*].appl.headerLength "80 bit"
param *.target[*].appl.sendBeacons false
param *.target[*].appl.dataOnSch false
param *.target[*].appl.beaconInterval 1s
param *.target[*].veinsmobility.x 0
param *.target[*].veinsmobility.y 0
param *.target[*].veinsmobility.z 0
param *.target[*].veinsmobility.setHostSpeed false
param *.target[*].nic.mac1609_4.txPower 20mW
param *.hacker[*].applType "\"AttackApp\""
param *.hacker[*].appl.headerLength "80 bit"
param *.hacker[*].appl.sendBeacons true
param *.hacker[*].appl.dataOnSch false
param *.hacker[*].veinsmobility.x 0
param *.hacker[*].veinsmobility.y 0
param *.hacker[*].veinsmobility.z 0
param *.hacker[*].veinsmobility.setHostSpeed false
param *.hacker[*].nic.mac1609_4.txPower 20mW
param *.hacker[*].appl.attack 2
param *.hacker[*].appl.attackInterval 0s

vector 0 RSUExampleScenario3.node[0].veinsmobility posx ETV
vector 1 RSUExampleScenario3.node[0].veinsmobility posy ETV
vector 2 RSUExampleScenario3.node[1].veinsmobility posx ETV
vector 3 RSUExampleScenario3.node[1].veinsmobility posy ETV
vector 4 RSUExampleScenario3.node[0].veinsmobility speed ETV
vector 5 RSUExampleScenario3.node[1].veinsmobility speed ETV
vector 6 RSUExampleScenario3.node[2].veinsmobility posx ETV
vector 7 RSUExampleScenario3.node[2].veinsmobility posy ETV
vector 8 RSUExampleScenario3.node[3].veinsmobility posx ETV
vector 9 RSUExampleScenario3.node[3].veinsmobility posy ETV
vector 10 RSUExampleScenario3.node[0].veinsmobility acceleration ETV
vector 11 RSUExampleScenario3.node[0].veinsmobility co2emission ETV
vector 12 RSUExampleScenario3.node[1].veinsmobility acceleration ETV
vector 13 RSUExampleScenario3.node[1].veinsmobility co2emission ETV
vector 14 RSUExampleScenario3.node[2].veinsmobility speed ETV
vector 15 RSUExampleScenario3.node[3].veinsmobility speed ETV
vector 16 RSUExampleScenario3.node[2].veinsmobility acceleration ETV
vector 17 RSUExampleScenario3.node[2].veinsmobility co2emission ETV
vector 18 RSUExampleScenario3.node[3].veinsmobility acceleration ETV
vector 19 RSUExampleScenario3.node[3].veinsmobility co2emission ETV
vector 20 RSUExampleScenario3.node[4].veinsmobility posx ETV
vector 21 RSUExampleScenario3.node[4].veinsmobility posy ETV
vector 22 RSUExampleScenario3.node[5].veinsmobility posx ETV
vector 23 RSUExampleScenario3.node[5].veinsmobility posy ETV
vector 24 RSUExampleScenario3.node[4].veinsmobility speed ETV
vector 25 RSUExampleScenario3.node[5].veinsmobility speed ETV
vector 26 RSUExampleScenario3.node[6].veinsmobility posx ETV
vector 27 RSUExampleScenario3.node[6].veinsmobility posy ETV
vector 28 RSUExampleScenario3.node[7].veinsmobility posx ETV
vector 29 RSUExampleScenario3.node[7].veinsmobility posy ETV
vector 30 RSUExampleScenario3.node[4].veinsmobility acceleration ETV
vector 31 RSUExampleScenario3.node[4].veinsmobility co2emission ETV
vector 32 RSUExampleScenario3.node[5].veinsmobility acceleration ETV
vector 33 RSUExampleScenario3.node[5].veinsmobility co2emission ETV
vector 34 RSUExampleScenario3.node[6].veinsmobility speed ETV
vector 35 RSUExampleScenario3.node[7].veinsmobility speed ETV
vector 36 RSUExampleScenario3.node[6].veinsmobility acceleration ETV
vector 37 RSUExampleScenario3.node[6].veinsmobility co2emission ETV
vector 38 RSUExampleScenario3.node[7].veinsmobility acceleration ETV
vector 39 RSUExampleScenario3.node[7].veinsmobility co2emission ETV
vector 40 RSUExampleScenario3.hacker[8].veinsmobility posx ETV
vector 41 RSUExampleScenario3.hacker[8].veinsmobility posy ETV
vector 42 RSUExampleScenario3.node[9].veinsmobility posx ETV
vector 43 RSUExampleScenario3.node[9].veinsmobility posy ETV
vector 44 RSUExampleScenario3.hacker[8].veinsmobility speed ETV
vector 45 RSUExampleScenario3.node[9].veinsmobility speed ETV
vector 46 RSUExampleScenario3.hacker[8].veinsmobility acceleration ETV
vector 47 RSUExampleScenario3.hacker[8].veinsmobility co2emission ETV
vector 48 RSUExampleScenario3.node[9].veinsmobility acceleration ETV
vector 49 RSUExampleScenario3.node[9].veinsmobility co2emission ETV
vector 50 RSUExampleScenario3.node[10].veinsmobility posx ETV
vector 51 RSUExampleScenario3.node[10].veinsmobility posy ETV
vector 52 RSUExampleScenario3.node[11].veinsmobility posx ETV
vector 53 RSUExampleScenario3.node[11].veinsmobility posy ETV
vector 54 RSUExampleScenario3.node[10].veinsmobility speed ETV
vector 55 RSUExampleScenario3.node[11].veinsmobility speed ETV
vector 56 RSUExampleScenario3.node[12].veinsmobility posx ETV
vector 57 RSUExampleScenario3.node[12].veinsmobility posy ETV
vector 58 RSUExampleScenario3.node[13].veinsmobility posx ETV
vector 59 RSUExampleScenario3.node[13].veinsmobility posy ETV
vector 60 RSUExampleScenario3.node[10].veinsmobility acceleration ETV
vector 61 RSUExampleScenario3.node[10].veinsmobility co2emission ETV
vector 62 RSUExampleScenario3.node[11].veinsmobility acceleration ETV
vector 63 RSUExampleScenario3.node[11].veinsmobility co2emission ETV
vector 64 RSUExampleScenario3.node[12].veinsmobility speed ETV
vector 65 RSUExampleScenario3.node[13].veinsmobility speed ETV
vector 66 RSUExampleScenario3.node[12].veinsmobility acceleration ETV
vector 67 RSUExampleScenario3.node[12].veinsmobility co2emission ETV
vector 68 RSUExampleScenario3.node[13].veinsmobility acceleration ETV
vector 69 RSUExampleScenario3.node[13].veinsmobility co2emission ETV
vector 70 RSUExampleScenario3.node[14].veinsmobility posx ETV
vector 71 RSUExampleScenario3.node[14].veinsmobility posy ETV
vector 72 RSUExampleScenario3.node[15].veinsmobility posx ETV
vector 73 RSUExampleScenario3.node[15].veinsmobility posy ETV
vector 74 RSUExampleScenario3.node[14].veinsmobility speed ETV
vector 75 RSUExampleScenario3.node[15].veinsmobility speed ETV
vector 76 RSUExampleScenario3.node[14].veinsmobility acceleration ETV
vector 77 RSUExampleScenario3.node[14].veinsmobility co2emission ETV
vector 78 RSUExampleScenario3.node[15].veinsmobility acceleration ETV
vector 79 RSUExampleScenario3.node[15].veinsmobility co2emission ETV
vector 80 RSUExampleScenario3.node[16].veinsmobility posx ETV
vector 81 RSUExampleScenario3.node[16].veinsmobility posy ETV
vector 82 RSUExampleScenario3.node[17].veinsmobility posx ETV
vector 83 RSUExampleScenario3.node[17].veinsmobility posy ETV
vector 84 RSUExampleScenario3.node[16].veinsmobility speed ETV
vector 85 RSUExampleScenario3.node[17].veinsmobility speed ETV
vector 86 RSUExampleScenario3.node[18].veinsmobility posx ETV
vector 87 RSUExampleScenario3.node[18].veinsmobility posy ETV
vector 88 RSUExampleScenario3.node[19].veinsmobility posx ETV
vector 89 RSUExampleScenario3.node[19].veinsmobility posy ETV
vector 90 RSUExampleScenario3.node[16].veinsmobility acceleration ETV
vector 91 RSUExampleScenario3.node[16].veinsmobility co2emission ETV
vector 92 RSUExampleScenario3.node[17].veinsmobility acceleration ETV
vector 93 RSUExampleScenario3.node[17].veinsmobility co2emission ETV
vector 94 RSUExampleScenario3.node[18].veinsmobility speed ETV
vector 95 RSUExampleScenario3.node[19].veinsmobility speed ETV
vector 96 RSUExampleScenario3.node[18].veinsmobility acceleration ETV
vector 97 RSUExampleScenario3.node[18].veinsmobility co2emission ETV
vector 98 RSUExampleScenario3.node[19].veinsmobility acceleration ETV
vector 99 RSUExampleScenario3.node[19].veinsmobility co2emission ETV
vector 100 RSUExampleScenario3.node[20].veinsmobility posx ETV
vector 101 RSUExampleScenario3.node[20].veinsmobility posy ETV
vector 102 RSUExampleScenario3.node[21].veinsmobility posx ETV
vector 103 RSUExampleScenario3.node[21].veinsmobility posy ETV
vector 104 RSUExampleScenario3.node[20].veinsmobility speed ETV
vector 105 RSUExampleScenario3.node[21].veinsmobility speed ETV
vector 106 RSUExampleScenario3.node[22].veinsmobility posx ETV
vector 107 RSUExampleScenario3.node[22].veinsmobility posy ETV
vector 108 RSUExampleScenario3.node[20].veinsmobility acceleration ETV
vector 109 RSUExampleScenario3.node[20].veinsmobility co2emission ETV
vector 110 RSUExampleScenario3.node[21].veinsmobility acceleration ETV
vector 111 RSUExampleScenario3.node[21].veinsmobility co2emission ETV
vector 112 RSUExampleScenario3.node[23].veinsmobility posx ETV
vector 113 RSUExampleScenario3.node[23].veinsmobility posy ETV
vector 114 RSUExampleScenario3.node[22].veinsmobility speed ETV
vector 115 RSUExampleScenario3.node[22].veinsmobility acceleration ETV
vector 116 RSUExampleScenario3.node[22].veinsmobility co2emission ETV
vector 117 RSUExampleScenario3.node[23].veinsmobility speed ETV
vector 118 RSUExampleScenario3.node[24].veinsmobility posx ETV
vector 119 RSUExampleScenario3.node[24].veinsmobility posy ETV
vector 120 RSUExampleScenario3.node[25].veinsmobility posx ETV
vector 121 RSUExampleScenario3.node[25].veinsmobility posy ETV
vector 122 RSUExampleScenario3.node[23].veinsmobility acceleration ETV
vector 123 RSUExampleScenario3.node[23].veinsmobility co2emission ETV
vector 124 RSUExampleScenario3.node[24].veinsmobility speed ETV
vector 125 RSUExampleScenario3.node[25].veinsmobility speed ETV
vector 126 RSUExampleScenario3.node[24].veinsmobility acceleration ETV
vector 127 RSUExampleScenario3.node[24].veinsmobility co2emission ETV
vector 128 RSUExampleScenario3.node[25].veinsmobility acceleration ETV
vector 129 RSUExampleScenario3.node[25].veinsmobility co2emission ETV
vector 130 RSUExampleScenario3.node[26].veinsmobility posx ETV
vector 131 RSUExampleScenario3.node[26].veinsmobility posy ETV
vector 132 RSUExampleScenario3.node[27].veinsmobility posx ETV
vector 133 RSUExampleScenario3.node[27].veinsmobility posy ETV
vector 134 RSUExampleScenario3.node[26].veinsmobility speed ETV
vector 135 RSUExampleScenario3.node[27].veinsmobility speed ETV
vector 136 RSUExampleScenario3.node[28].veinsmobility posx ETV
vector 137 RSUExampleScenario3.node[28].veinsmobility posy ETV
vector 138 RSUExampleScenario3.node[29].veinsmobility posx ETV
vector 139 RSUExampleScenario3.node[29].veinsmobility posy ETV
vector 140 RSUExampleScenario3.node[26].veinsmobility acceleration ETV
vector 141 RSUExampleScenario3.node[26].veinsmobility co2emission ETV
vector 142 RSUExampleScenario3.node[27].veinsmobility acceleration ETV
vector 143 RSUExampleScenario3.node[27].veinsmobility co2emission ETV
vector 144 RSUExampleScenario3.node[28].veinsmobility speed ETV
vector 145 RSUExampleScenario3.node[29].veinsmobility speed ETV
vector 146 RSUExampleScenario3.node[28].veinsmobility acceleration ETV
vector 147 RSUExampleScenario3.node[28].veinsmobility co2emission ETV
vector 148 RSUExampleScenario3.node[29].veinsmobility acceleration ETV
vector 149 RSUExampleScenario3.node[29].veinsmobility co2emission ETV
vector 150 RSUExampleScenario3.node[30].veinsmobility posx ETV
vector 151 RSUExampleScenario3.node[30].veinsmobility posy ETV
vector 152 RSUExampleScenario3.node[31].veinsmobility posx ETV
vector 153 RSUExampleScenario3.node[31].veinsmobility posy ETV
vector 154 RSUExampleScenario3.node[30].veinsmobility speed ETV
vector 155 RSUExampleScenario3.node[31].veinsmobility speed ETV
vector 156 RSUExampleScenario3.node[30].veinsmobility acceleration ETV
vector 157 RSUExampleScenario3.node[30].veinsmobility co2emission ETV
vector 158 RSUExampleScenario3.node[31].veinsmobility acceleration ETV
vector 159 RSUExampleScenario3.node[31].veinsmobility co2emission ETV
vector 160 RSUExampleScenario3.node[32].veinsmobility posx ETV
vector 161 RSUExampleScenario3.node[32].veinsmobility posy ETV
vector 162 RSUExampleScenario3.node[33].veinsmobility posx ETV
vector 163 RSUExampleScenario3.node[33].veinsmobility posy ETV
vector 164 RSUExampleScenario3.node[32].veinsmobility speed ETV
vector 165 RSUExampleScenario3.node[33].veinsmobility speed ETV
vector 166 RSUExampleScenario3.node[34].veinsmobility posx ETV
vector 167 RSUExampleScenario3.node[34].veinsmobility posy ETV
vector 168 RSUExampleScenario3.node[32].veinsmobility acceleration ETV
vector 169 RSUExampleScenario3.node[32].veinsmobility co2emission ETV
vector 170 RSUExampleScenario3.node[33].veinsmobility acceleration ETV
vector 171 RSUExampleScenario3.node[33].veinsmobility co2emission ETV
vector 172 RSUExampleScenario3.node[35].veinsmobility posx ETV
vector 173 RSUExampleScenario3.node[35].veinsmobility posy ETV
vector 174 RSUExampleScenario3.node[34].veinsmobility speed ETV
vector 175 RSUExampleScenario3.node[34].veinsmobility acceleration ETV
vector 176 RSUExampleScenario3.node[34].veinsmobility co2emission ETV
vector 177 RSUExampleScenario3.node[35].veinsmobility speed ETV
vector 178 RSUExampleScenario3.node[36].veinsmobility posx ETV
vector 179 RSUExampleScenario3.node[36].veinsmobility posy ETV
vector 180 RSUExampleScenario3.node[37].veinsmobility posx ETV
vector 181 RSUExampleScenario3.node[37].veinsmobility posy ETV
vector 182 RSUExampleScenario3.node[35].veinsmobility acceleration ETV
vector 183 RSUExampleScenario3.node[35].veinsmobility co2emission ETV
vector 184 RSUExampleScenario3.node[36].veinsmobility speed ETV
vector 185 RSUExampleScenario3.node[37].veinsmobility speed ETV
vector 186 RSUExampleScenario3.node[38].veinsmobility posx ETV
vector 187 RSUExampleScenario3.node[38].veinsmobility posy ETV
vector 188 RSUExampleScenario3.node[36].veinsmobility acceleration ETV
vector 189 RSUExampleScenario3.node[36].veinsmobility co2emission ETV
vector 190 RSUExampleScenario3.node[37].veinsmobility acceleration ETV
vector 191 RSUExampleScenario3.node[37].veinsmobility co2emission ETV
vector 192 RSUExampleScenario3.node[39].veinsmobility posx ETV
vector 193 RSUExampleScenario3.node[39].veinsmobility posy ETV
vector 194 RSUExampleScenario3.node[38].veinsmobility speed ETV
vector 195 RSUExampleScenario3.node[38].veinsmobility acceleration ETV
vector 196 RSUExampleScenario3.node[38].veinsmobility co2emission ETV
vector 197 RSUExampleScenario3.node[39].veinsmobility speed ETV
vector 198 RSUExampleScenario3.node[40].veinsmobility posx ETV
vector 199 RSUExampleScenario3.node[40].veinsmobility posy ETV
vector 200 RSUExampleScenario3.node[41].veinsmobility posx ETV
vector 201 RSUExampleScenario3.node[41].veinsmobility posy ETV
vector 202 RSUExampleScenario3.node[39].veinsmobility acceleration ETV
vector 203 RSUExampleScenario3.node[39].veinsmobility co2emission ETV
vector 204 RSUExampleScenario3.node[40].veinsmobility speed ETV
vector 205 RSUExampleScenario3.node[41].veinsmobility speed ETV
vector 206 RSUExampleScenario3.node[40].veinsmobility acceleration ETV
vector 207 RSUExampleScenario3.node[40].veinsmobility co2emission ETV
vector 208 RSUExampleScenario3.node[41].veinsmobility acceleration ETV
vector 209 RSUExampleScenario3.node[41].veinsmobility co2emission ETV
vector 210 RSUExampleScenario3.node[42].veinsmobility posx ETV
vector 211 RSUExampleScenario3.node[42].veinsmobility posy ETV
vector 212 RSUExampleScenario3.node[43].veinsmobility posx ETV
vector 213 RSUExampleScenario3.node[43].veinsmobility posy ETV
vector 214 RSUExampleScenario3.node[42].veinsmobility speed ETV
vector 215 RSUExampleScenario3.node[43].veinsmobility speed ETV
vector 216 RSUExampleScenario3.node[44].veinsmobility posx ETV
vector 217 RSUExampleScenario3.node[44].veinsmobility posy ETV
vector 218 RSUExampleScenario3.node[42].veinsmobility acceleration ETV
vector 219 RSUExampleScenario3.node[42].veinsmobility co2emission ETV
vector 220 RSUExampleScenario3.node[43].veinsmobility acceleration ETV
vector 221 RSUExampleScenario3.node[43].veinsmobility co2emission ETV
vector 222 RSUExampleScenario3.node[45].veinsmobility posx ETV
vector 223 RSUExampleScenario3.node[45].veinsmobility posy ETV
vector 224 RSUExampleScenario3.node[44].veinsmobility speed ETV
vector 225 RSUExampleScenario3.node[44].veinsmobility acceleration ETV
vector 226 RSUExampleScenario3.node[44].veinsmobility co2emission ETV
vector 227 RSUExampleScenario3.node[45].veinsmobility speed ETV
vector 228 RSUExampleScenario3.node[46].veinsmobility posx ETV
vector 229 RSUExampleScenario3.node[46].veinsmobility posy ETV
vector 230 RSUExampleScenario3.node[47].veinsmobility posx ETV
vector 231 RSUExampleScenario3.node[47].veinsmobility posy ETV
vector 232 RSUExampleScenario3.node[45].veinsmobility acceleration ETV
vector 233 RSUExampleScenario3.node[45].veinsmobility co2emission ETV
vector 234 RSUExampleScenario3.node[46].veinsmobility speed ETV
vector 235 RSUExampleScenario3.node[47].veinsmobility speed ETV
11	18598 1597 62 11950 3 62 60 4.5089630293894 24.187334477737 574.1504242009 6611.2965131478
10	20195 1705 62 11950 3 62 60 -0.12412090345752 2.1604065203737 33.432524556523 66.089516795737
4	21900 1554 9 11950 2 62 61 4.1049693682593 37.546004408379 1991.8465293402 70346.154874784
1	23454 903 2 11950 1 62 62 20.2 20.2 1252.4 25298.48
0	24357 1579 2 11950 1 62 62 31.210277385219 2007.3337949336 55564.39317152 74088032.889079
13	25936 1599 62 11950 3 62 60 4.2809693417778 24.038647723641 571.67035166233 6500.3945653788
12	27535 1709 62 11950 3 62 60 -0.10023639483145 2.1318792836717 33.454924560035 64.220506625159
5	29244 1560 9 11950 2 62 61 4.0509607485734 37.543933913547 1984.4998190934 69938.473510626
3	30804 903 2 11950 1 62 62 23.4 23.4 1450.8 33948.72
2	31707 1571 2 11950 1 62 62 31.165207203308 1999.6101781766 55186.058508962 73251122.883703
vector 236 RSUExampleScenario3.node[46].veinsmobility acceleration ETV
vector 237 RSUExampleScenario3.node[46].veinsmobility co2emission ETV
vector 238 RSUExampleScenario3.node[47].veinsmobility acceleration ETV
vector 239 RSUExampleScenario3.node[47].veinsmobility co2emission ETV
vector 240 RSUExampleScenario3.node[48].veinsmobility posx ETV
vector 241 RSUExampleScenario3.node[48].veinsmobility posy ETV
vector 242 RSUExampleScenario3.node[49].veinsmobility posx ETV
vector 243 RSUExampleScenario3.node[49].veinsmobility posy ETV
vector 244 RSUExampleScenario3.node[48].veinsmobility speed ETV
vector 245 RSUExampleScenario3.node[49].veinsmobility speed ETV
19	33940 1632 164 12946 5 65 61 3.7157725636621 24.230041789651 576.2947950801 6606.0675275769
18	35572 1743 164 12946 5 65 61 -0.088238615521696 2.1454097055202 34.424823228563 66.567912749907
15	37315 1656 69 12946 4 65 62 3.0556481882581 37.54740559316 1999.6098274764 70451.704293878
9	38971 929 62 12946 3 65 63 23.4 23.4 1474.2 34496.28
8	39900 1616 62 12946 3 65 63 30.251595259002 2013.8286854159 55968.982311628 74804975.998685
17	41516 1633 164 12946 5 65 61 3.5939002659396 23.646589499136 576.4999275178 6584.8970166085
16	43149 1740 164 12946 5 65 61 -0.082794631868602 2.1974751657737 34.528398597699 66.379202694555
14	44889 1651 69 12946 4 65 62 3.0037244161537 37.546873188044 1998.5947768449 70396.339307936
7	46540 929 62 12946 3 65 63 20.2 20.2 1272.6 25706.52
6	47469 1606 62 12946 3 65 63 30.248660197588 2012.0062751527 55893.735449697 74628592.105863
vector 246 RSUExampleScenario3.node[50].veinsmobility posx ETV
vector 247 RSUExampleScenario3.node[50].veinsmobility posy ETV
vector 248 RSUExampleScenario3.node[48].veinsmobility acceleration ETV
vector 249 RSUExampleScenario3.node[48].veinsmobility co2emission ETV
vector 250 RSUExampleScenario3.node[49].veinsmobility acceleration ETV
vector 251 RSUExampleScenario3.node[49].veinsmobility co2emission ETV
vector 252 RSUExampleScenario3.node[51].veinsmobility posx ETV
vector 253 RSUExampleScenario3.node[51].veinsmobility posy ETV
vector 254 RSUExampleScenario3.node[50].veinsmobility speed ETV
vector 255 RSUExampleScenario3.node[50].veinsmobility acceleration ETV
vector 256 RSUExampleScenario3.node[50].veinsmobility co2emission ETV
vector 257 RSUExampleScenario3.node[51].veinsmobility speed ETV
vector 258 RSUExampleScenario3.node[52].veinsmobility posx ETV
vector 259 RSUExampleScenario3.node[52].veinsmobility posy ETV
vector 260 RSUExampleScenario3.node[53].veinsmobility posx ETV
vector 261 RSUExampleScenario3.node[53].veinsmobility posy ETV
vector 262 RSUExampleScenario3.node[51].veinsmobility acceleration ETV
vector 263 RSUExampleScenario3.node[51].veinsmobility co2emission ETV
vector 264 RSUExampleScenario3.node[52].veinsmobility speed ETV
vector 265 RSUExampleScenario3.node[53].veinsmobility speed ETV
39	50399 1642 473 14920 10 70 61 3.1753916572798 23.34507855161 573.65135598134 6460.4525584758
38	52041 1753 473 14920 10 70 61 -0.1026755718654 2.1037397888605 35.321135353158 66.490848464918
35	53794 1673 316 14920 9 70 62 2.2188898846425 37.542643026327 1981.2211028307 69672.441594794
29	55467 1009 309 14920 8 70 63 23.4 23.4 1474.2 34496.28
28	56476 1680 309 14920 8 70 63 30.1 1995.1580397457 54990.170295569 72763075.456794
vector 266 RSUExampleScenario3.node[54].veinsmobility posx ETV
vector 267 RSUExampleScenario3.node[54].veinsmobility posy ETV
vector 268 RSUExampleScenario3.node[52].veinsmobility acceleration ETV
vector 269 RSUExampleScenario3.node[52].veinsmobility co2emission ETV
vector 270 RSUExampleScenario3.node[53].veinsmobility acceleration ETV
vector 271 RSUExampleScenario3.node[53].veinsmobility co2emission ETV
vector 272 RSUExampleScenario3.node[55].veinsmobility posx ETV
vector 273 RSUExampleScenario3.node[55].veinsmobility posy ETV
vector 274 RSUExampleScenario3.node[54].veinsmobility speed ETV
vector 275 RSUExampleScenario3.node[54].veinsmobility acceleration ETV
vector 276 RSUExampleScenario3.node[54].veinsmobility co2emission ETV
vector 277 RSUExampleScenario3.node[55].veinsmobility speed ETV
31	58959 1770 309 16516 8 73 66 0.973 25.182924394402 564.08656555877 6312.5657584963
30	60729 1897 309 16516 8 73 66 -0.57054109448333 2.0492395634949 34.112877428561 62.906124449081
24	62626 1806 172 16516 7 73 67 3.3073804356839 37.546421425372 1994.4316077272 66957.259995856
21	64432 1088 165 16516 6 73 68 20.2 23.4 1533.6 34722.72
20	65520 1825 165 16516 6 73 68 30.766522749397 2009.2763597451 57152.96922056 74742161.259486
vector 278 RSUExampleScenario3.node[56].veinsmobility posx ETV
vector 279 RSUExampleScenario3.node[56].veinsmobility posy ETV
vector 280 RSUExampleScenario3.node[57].veinsmobility posx ETV
vector 281 RSUExampleScenario3.node[57].veinsmobility posy ETV
vector 282 RSUExampleScenario3.node[55].veinsmobility acceleration ETV
vector 283 RSUExampleScenario3.node[55].veinsmobility co2emission ETV
vector 284 RSUExampleScenario3.node[56].veinsmobility speed ETV
vector 285 RSUExampleScenario3.node[57].veinsmobility speed ETV
vector 286 RSUExampleScenario3.node[56].veinsmobility acceleration ETV
vector 287 RSUExampleScenario3.node[56].veinsmobility co2emission ETV
vector 288 RSUExampleScenario3.node[57].veinsmobility acceleration ETV
vector 289 RSUExampleScenario3.node[57].veinsmobility co2emission ETV
vector 290 RSUExampleScenario3.node[58].veinsmobility posx ETV
vector 291 RSUExampleScenario3.node[58].veinsmobility posy ETV
vector 292 RSUExampleScenario3.node[59].veinsmobility posx ETV
vector 293 RSUExampleScenario3.node[59].veinsmobility posy ETV
vector 294 RSUExampleScenario3.node[58].veinsmobility speed ETV
vector 295 RSUExampleScenario3.node[59].veinsmobility speed ETV
vector 296 RSUExampleScenario3.node[60].veinsmobility posx ETV
vector 297 RSUExampleScenario3.node[60].veinsmobility posy ETV
vector 298 RSUExampleScenario3.node[58].veinsmobility acceleration ETV
vector 299 RSUExampleScenario3.node[58].veinsmobility co2emission ETV
vector 300 RSUExampleScenario3.node[59].veinsmobility acceleration ETV
vector 301 RSUExampleScenario3.node[59].veinsmobility co2emission ETV
vector 302 RSUExampleScenario3.node[61].veinsmobility posx ETV
vector 303 RSUExampleScenario3.node[61].veinsmobility posy ETV
vector 304 RSUExampleScenario3.node[60].veinsmobility speed ETV
vector 305 RSUExampleScenario3.node[60].veinsmobility acceleration ETV
vector 306 RSUExampleScenario3.node[60].veinsmobility co2emission ETV
vector 307 RSUExampleScenario3.node[61].veinsmobility speed ETV
vector 308 RSUExampleScenario3.node[62].veinsmobility posx ETV
vector 309 RSUExampleScenario3.node[62].veinsmobility posy ETV
vector 310 RSUExampleScenario3.node[63].veinsmobility posx ETV
vector 311 RSUExampleScenario3.node[63].veinsmobility posy ETV
vector 312 RSUExampleScenario3.node[61].veinsmobility acceleration ETV
vector 313 RSUExampleScenario3.node[61].veinsmobility co2emission ETV
vector 314 RSUExampleScenario3.node[62].veinsmobility speed ETV
vector 315 RSUExampleScenario3.node[63].veinsmobility speed ETV
vector 316 RSUExampleScenario3.node[62].veinsmobility acceleration ETV
vector 317 RSUExampleScenario3.node[62].veinsmobility co2emission ETV
vector 318 RSUExampleScenario3.node[63].veinsmobility acceleration ETV
vector 319 RSUExampleScenario3.node[63].veinsmobility co2emission ETV
vector 320 RSUExampleScenario3.node[64].veinsmobility posx ETV
vector 321 RSUExampleScenario3.node[64].veinsmobility posy ETV
vector 322 RSUExampleScenario3.node[65].veinsmobility posx ETV
vector 323 RSUExampleScenario3.node[65].veinsmobility posy ETV
vector 324 RSUExampleScenario3.node[64].veinsmobility speed ETV
vector 325 RSUExampleScenario3.node[65].veinsmobility speed ETV
vector 326 RSUExampleScenario3.node[66].veinsmobility posx ETV
vector 327 RSUExampleScenario3.node[66].veinsmobility posy ETV
vector 328 RSUExampleScenario3.node[64].veinsmobility acceleration ETV
vector 329 RSUExampleScenario3.node[64].veinsmobility co2emission ETV
vector 330 RSUExampleScenario3.node[65].veinsmobility acceleration ETV
vector 331 RSUExampleScenario3.node[65].veinsmobility co2emission ETV
vector 332 RSUExampleScenario3.node[67].veinsmobility posx ETV
vector 333 RSUExampleScenario3.node[67].veinsmobility posy ETV
vector 334 RSUExampleScenario3.node[66].veinsmobility speed ETV
vector 335 RSUExampleScenario3.node[66].veinsmobility acceleration ETV
vector 336 RSUExampleScenario3.node[66].veinsmobility co2emission ETV
vector 337 RSUExampleScenario3.node[67].veinsmobility speed ETV
vector 338 RSUExampleScenario3.node[68].veinsmobility posx ETV
vector 339 RSUExampleScenario3.node[68].veinsmobility posy ETV
vector 340 RSUExampleScenario3.node[67].veinsmobility acceleration ETV
vector 341 RSUExampleScenario3.node[67].veinsmobility co2emission ETV
vector 342 RSUExampleScenario3.node[69].veinsmobility posx ETV
vector 343 RSUExampleScenario3.node[69].veinsmobility posy ETV
vector 344 RSUExampleScenario3.node[68].veinsmobility speed ETV
vector 345 RSUExampleScenario3.node[70].veinsmobility posx ETV
vector 346 RSUExampleScenario3.node[70].veinsmobility posy ETV
vector 347 RSUExampleScenario3.node[68].veinsmobility acceleration ETV
vector 348 RSUExampleScenario3.node[68].veinsmobility co2emission ETV
vector 349 RSUExampleScenario3.node[69].veinsmobility speed ETV
vector 350 RSUExampleScenario3.node[71].veinsmobility posx ETV
vector 351 RSUExampleScenario3.node[71].veinsmobility posy ETV
vector 352 RSUExampleScenario3.node[69].veinsmobility acceleration ETV
vector 353 RSUExampleScenario3.node[69].veinsmobility co2emission ETV
vector 354 RSUExampleScenario3.node[70].veinsmobility speed ETV
vector 355 RSUExampleScenario3.node[70].veinsmobility acceleration ETV
vector 356 RSUExampleScenario3.node[70].veinsmobility co2emission ETV
vector 357 RSUExampleScenario3.node[71].veinsmobility speed ETV
vector 358 RSUExampleScenario3.node[72].veinsmobility posx ETV
vector 359 RSUExampleScenario3.node[72].veinsmobility posy ETV
vector 360 RSUExampleScenario3.node[71].veinsmobility acceleration ETV
vector 361 RSUExampleScenario3.node[71].veinsmobility co2emission ETV
61	72908 2183 875 27144 16 95 80 2.1637722309218 15.929236947718 401.77860357471 2543.8912413023
60	75091 2366 875 27144 16 95 80 -0.10009835775243 2.2262400113232 23.432931450083 43.959255733095
54	77457 2213 612 27144 15 95 81 3.6491446396697 27.108016973923 1991.0747875817 51391.96323108
51	79670 1346 605 27144 14 95 82 20.2 23.4 1771.6 38482
50	81016 2239 605 27144 14 95 82 30.782698664707 2011.0527585247 76510.300347241 102388142.7668
vector 362 RSUExampleScenario3.node[73].veinsmobility posx ETV
vector 363 RSUExampleScenario3.node[73].veinsmobility posy ETV
vector 364 RSUExampleScenario3.node[72].veinsmobility speed ETV
vector 365 RSUExampleScenario3.node[72].veinsmobility acceleration ETV
vector 366 RSUExampleScenario3.node[72].veinsmobility co2emission ETV
vector 367 RSUExampleScenario3.node[73].veinsmobility speed ETV
vector 368 RSUExampleScenario3.node[74].veinsmobility posx ETV
vector 369 RSUExampleScenario3.node[74].veinsmobility posy ETV
vector 370 RSUExampleScenario3.node[75].veinsmobility posx ETV
vector 371 RSUExampleScenario3.node[75].veinsmobility posy ETV
vector 372 RSUExampleScenario3.node[73].veinsmobility acceleration ETV
vector 373 RSUExampleScenario3.node[73].veinsmobility co2emission ETV
vector 374 RSUExampleScenario3.node[74].veinsmobility speed ETV
vector 375 RSUExampleScenario3.node[75].veinsmobility speed ETV
vector 376 RSUExampleScenario3.node[76].veinsmobility posx ETV
vector 377 RSUExampleScenario3.node[76].veinsmobility posy ETV
vector 378 RSUExampleScenario3.node[74].veinsmobility acceleration ETV
vector 379 RSUExampleScenario3.node[74].veinsmobility co2emission ETV
vector 380 RSUExampleScenario3.node[75].veinsmobility acceleration ETV
vector 381 RSUExampleScenario3.node[75].veinsmobility co2emission ETV
77	84579 2160 1502 30074 21 100 80 0.0058204318237989 19.922073367274 458.86216236896 4026.3212737163
76	86739 2346 1502 30074 21 100 80 -0.68229946324782 2.2981906186417 28.276324066685 64.804504614555
74	89085 2225 1155 30074 20 100 81 3.2575855861786 31.646974465802 2006.8205615836 54573.042116016
71	91310 1356 1148 30074 19 100 82 20.2 23.4 1832.4 41132.88
70	92666 2248 1148 30074 19 100 82 30.458003194726 2022.6256799745 70489.515550424 91388351.318259
vector 382 RSUExampleScenario3.node[77].veinsmobility posx ETV
vector 383 RSUExampleScenario3.node[77].veinsmobility posy ETV
vector 384 RSUExampleScenario3.node[76].veinsmobility speed ETV
69	95104 2204 1147 30078 18 101 84 0.973 19.926337567696 491.72332997896 4549.0848149711
68	97308 2444 1147 30078 18 101 84 -0.77569349689321 2.1121948037436 30.989338547209 75.255151181891
65	99752 2329 882 30078 17 101 85 2.3133675992958 34.446615976591 2000.1131320471 55230.340437045
59	102081 1420 875 30078 16 101 86 23.4 23.4 2012.4 47090.16
58	103501 2348 875 30078 16 101 86 30.1 2015.2235084087 69665.160117327 89079160.965268
vector 385 RSUExampleScenario3.node[76].veinsmobility acceleration ETV
vector 386 RSUExampleScenario3.node[76].veinsmobility co2emission ETV
vector 387 RSUExampleScenario3.node[77].veinsmobility speed ETV
vector 388 RSUExampleScenario3.node[78].veinsmobility posx ETV
vector 389 RSUExampleScenario3.node[78].veinsmobility posy ETV
vector 390 RSUExampleScenario3.node[77].veinsmobility acceleration ETV
vector 391 RSUExampleScenario3.node[77].veinsmobility co2emission ETV
vector 392 RSUExampleScenario3.node[79].veinsmobility posx ETV
vector 393 RSUExampleScenario3.node[79].veinsmobility posy ETV
vector 394 RSUExampleScenario3.node[78].veinsmobility speed ETV
vector 395 RSUExampleScenario3.node[78].veinsmobility acceleration ETV
vector 396 RSUExampleScenario3.node[78].veinsmobility co2emission ETV
vector 397 RSUExampleScenario3.node[79].veinsmobility speed ETV
vector 398 RSUExampleScenario3.node[80].veinsmobility posx ETV
vector 399 RSUExampleScenario3.node[80].veinsmobility posy ETV
vector 400 RSUExampleScenario3.node[81].veinsmobility posx ETV
vector 401 RSUExampleScenario3.node[81].veinsmobility posy ETV
vector 402 RSUExampleScenario3.node[79].veinsmobility acceleration ETV
vector 403 RSUExampleScenario3.node[79].veinsmobility co2emission ETV
vector 404 RSUExampleScenario3.node[80].veinsmobility speed ETV
vector 405 RSUExampleScenario3.node[81].veinsmobility speed ETV
vector 406 RSUExampleScenario3.node[82].veinsmobility posx ETV
vector 407 RSUExampleScenario3.node[82].veinsmobility posy ETV
vector 408 RSUExampleScenario3.node[80].veinsmobility acceleration ETV
vector 409 RSUExampleScenario3.node[80].veinsmobility co2emission ETV
vector 410 RSUExampleScenario3.node[81].veinsmobility acceleration ETV
vector 411 RSUExampleScenario3.node[81].veinsmobility co2emission ETV
vector 412 RSUExampleScenario3.node[83].veinsmobility posx ETV
vector 413 RSUExampleScenario3.node[83].veinsmobility posy ETV
vector 414 RSUExampleScenario3.node[82].veinsmobility speed ETV
vector 415 RSUExampleScenario3.node[82].veinsmobility acceleration ETV
vector 416 RSUExampleScenario3.node[82].veinsmobility co2emission ETV
vector 417 RSUExampleScenario3.node[83].veinsmobility speed ETV
vector 418 RSUExampleScenario3.node[84].veinsmobility posx ETV
vector 419 RSUExampleScenario3.node[84].veinsmobility posy ETV
vector 420 RSUExampleScenario3.node[83].veinsmobility acceleration ETV
vector 421 RSUExampleScenario3.node[83].veinsmobility co2emission ETV
vector 422 RSUExampleScenario3.node[85].veinsmobility posx ETV
vector 423 RSUExampleScenario3.node[85].veinsmobility posy ETV
vector 424 RSUExampleScenario3.node[84].veinsmobility speed ETV
vector 425 RSUExampleScenario3.node[84].veinsmobility acceleration ETV
vector 426 RSUExampleScenario3.node[84].veinsmobility co2emission ETV
vector 427 RSUExampleScenario3.node[85].veinsmobility speed ETV
vector 428 RSUExampleScenario3.node[86].veinsmobility posx ETV
vector 429 RSUExampleScenario3.node[86].veinsmobility posy ETV
vector 430 RSUExampleScenario3.node[87].veinsmobility posx ETV
vector 431 RSUExampleScenario3.node[87].veinsmobility posy ETV
vector 432 RSUExampleScenario3.node[85].veinsmobility acceleration ETV
vector 433 RSUExampleScenario3.node[85].veinsmobility co2emission ETV
vector 434 RSUExampleScenario3.node[86].veinsmobility speed ETV
vector 435 RSUExampleScenario3.node[87].veinsmobility speed ETV
33	109223 2971 309 38207 8 115 108 2.102194993886 10.985154868314 325.37127215415 1212.5092407983
32	112194 3223 309 38207 8 115 108 -0.11820929368259 2.0953223790112 15.415235435563 30.000507407487
25	115417 2987 172 38207 7 115 109 3.4639862189764 18.982618677931 1992.6115979959 37144.828638453
23	118404 1818 165 38207 6 115 110 20.2 23.4 2266.8 46837.68
22	120222 3018 165 38207 6 115 110 30.759089671923 2015.3605279646 108558.49863094 146295771.69313
vector 436 RSUExampleScenario3.node[88].veinsmobility posx ETV
vector 437 RSUExampleScenario3.node[88].veinsmobility posy ETV
vector 438 RSUExampleScenario3.node[86].veinsmobility acceleration ETV
vector 439 RSUExampleScenario3.node[86].veinsmobility co2emission ETV
vector 440 RSUExampleScenario3.node[87].veinsmobility acceleration ETV
vector 441 RSUExampleScenario3.node[87].veinsmobility co2emission ETV
63	123648 2688 875 39642 16 116 101 0.973 14.78953795605 388.50920031284 2293.9787862816
62	126336 3004 875 39642 16 116 101 -1.4085625267843 2.0497018623911 20.501017442803 58.425454334324
55	129340 2816 612 39642 15 116 102 3.4181202380999 23.923990352102 1990.9601923856 42042.993839123
53	132156 1720 605 39642 14 116 103 20.2 23.4 2349.4 53747.8
52	133876 2840 605 39642 14 116 103 30.766952236453 2011.4966100678 90417.181350486 117480354.67128
vector 442 RSUExampleScenario3.node[89].veinsmobility posx ETV
vector 443 RSUExampleScenario3.node[89].veinsmobility posy ETV
vector 444 RSUExampleScenario3.node[88].veinsmobility speed ETV
vector 445 RSUExampleScenario3.node[88].veinsmobility acceleration ETV
vector 446 RSUExampleScenario3.node[88].veinsmobility co2emission ETV
vector 447 RSUExampleScenario3.node[89].veinsmobility speed ETV
vector 448 RSUExampleScenario3.node[90].veinsmobility posx ETV
vector 449 RSUExampleScenario3.node[90].veinsmobility posy ETV
vector 450 RSUExampleScenario3.node[91].veinsmobility posx ETV
vector 451 RSUExampleScenario3.node[91].veinsmobility posy ETV
vector 452 RSUExampleScenario3.node[89].veinsmobility acceleration ETV
vector 453 RSUExampleScenario3.node[89].veinsmobility co2emission ETV
67	137504 2794 1147 41418 18 119 102 0.973 11.539298237325 347.62229733876 1517.3026593084
66	140298 3056 1147 41418 18 119 102 -1.0676251870233 2.1255711738439 18.46894741866 39.278330670676
64	143354 2848 882 41418 17 119 103 2.4570822471604 20.930200621817 2003.7705717409 40191.3570148
57	146202 1744 875 41418 16 119 104 20.2 23.4 2145.6 44389.44
56	147946 2871 875 41418 16 119 104 30.124875173737 2022.8844221831 99895.595333638 134459250.49094
vector 454 RSUExampleScenario3.node[90].veinsmobility speed ETV
vector 455 RSUExampleScenario3.node[91].veinsmobility speed ETV
79	150945 2653 1502 41425 21 120 100 0.973 12.876705043479 367.16448830163 1883.4197475334
78	153598 2984 1502 41425 21 120 100 -1.0453426371018 2.145764434 19.964591043796 52.318668186492
75	156582 2799 1155 41425 20 120 101 3.0039027520391 22.983627173989 1982.9278136954 41443.37682686
73	159381 1716 1148 41425 19 120 102 20.2 23.4 2271.6 50828.4
72	161097 2824 1148 41425 19 120 102 30.34380202386 2002.9915930485 91608.093218846 119799070.05992
vector 456 RSUExampleScenario3.node[90].veinsmobility acceleration ETV
vector 457 RSUExampleScenario3.node[90].veinsmobility co2emission ETV
vector 458 RSUExampleScenario3.node[91].veinsmobility acceleration ETV
vector 459 RSUExampleScenario3.node[91].veinsmobility co2emission ETV
vector 460 RSUExampleScenario3.node[92].veinsmobility posx ETV
vector 461 RSUExampleScenario3.node[92].veinsmobility posy ETV
vector 462 RSUExampleScenario3.node[93].veinsmobility posx ETV
vector 463 RSUExampleScenario3.node[93].veinsmobility posy ETV
vector 464 RSUExampleScenario3.node[92].veinsmobility speed ETV
vector 465 RSUExampleScenario3.node[93].veinsmobility speed ETV
vector 466 RSUExampleScenario3.node[94].veinsmobility posx ETV
vector 467 RSUExampleScenario3.node[94].veinsmobility posy ETV
vector 468 RSUExampleScenario3.node[92].veinsmobility acceleration ETV
vector 469 RSUExampleScenario3.node[92].veinsmobility co2emission ETV
vector 470 RSUExampleScenario3.node[93].veinsmobility acceleration ETV
vector 471 RSUExampleScenario3.node[93].veinsmobility co2emission ETV
vector 472 RSUExampleScenario3.node[95].veinsmobility posx ETV
vector 473 RSUExampleScenario3.node[95].veinsmobility posy ETV
vector 474 RSUExampleScenario3.node[94].veinsmobility speed ETV
vector 475 RSUExampleScenario3.node[94].veinsmobility acceleration ETV
vector 476 RSUExampleScenario3.node[94].veinsmobility co2emission ETV
vector 477 RSUExampleScenario3.node[95].veinsmobility speed ETV
vector 478 RSUExampleScenario3.node[96].veinsmobility posx ETV
vector 479 RSUExampleScenario3.node[96].veinsmobility posy ETV
vector 480 RSUExampleScenario3.node[97].veinsmobility posx ETV
vector 481 RSUExampleScenario3.node[97].veinsmobility posy ETV
vector 482 RSUExampleScenario3.node[95].veinsmobility acceleration ETV
vector 483 RSUExampleScenario3.node[95].veinsmobility co2emission ETV
99	165779 2756 2279 46568 26 127 102 0.973 12.014322867302 366.94279117285 1799.173375151
98	168535 3045 2279 46568 26 127 102 -1.2457784399458 2.0950903264573 20.031168064682 49.947504046957
95	171580 2867 1906 46568 25 127 103 2.6353810811292 22.707300556806 1981.9085556372 40097.43929569
89	174447 1762 1899 46568 24 127 104 20.2 23.4 2337.6 52760.64
88	176209 2897 1899 46568 24 127 104 30.175862420484 2002.659201402 94169.410077007 122390017.65089
vector 484 RSUExampleScenario3.node[96].veinsmobility speed ETV
vector 485 RSUExampleScenario3.node[97].veinsmobility speed ETV
vector 486 RSUExampleScenario3.node[96].veinsmobility acceleration ETV
vector 487 RSUExampleScenario3.node[96].veinsmobility co2emission ETV
vector 488 RSUExampleScenario3.node[97].veinsmobility acceleration ETV
vector 489 RSUExampleScenario3.node[97].veinsmobility co2emission ETV
vector 490 RSUExampleScenario3.node[98].veinsmobility posx ETV
vector 491 RSUExampleScenario3.node[98].veinsmobility posy ETV
vector 492 RSUExampleScenario3.node[99].veinsmobility posx ETV
vector 493 RSUExampleScenario3.node[99].veinsmobility posy ETV
vector 494 RSUExampleScenario3.node[98].veinsmobility speed ETV
vector 495 RSUExampleScenario3.node[99].veinsmobility speed ETV
111	179896 2889 2753 48282 29 131 103 0.973 12.56224385013 357.31346843276 1675.5102605955
110	182785 3186 2753 48282 29 131 103 -1.1990094258534 2.265314717677 18.33068671314 46.980206295415
105	185971 3008 2287 48282 28 131 104 3.3119661503127 21.66096911435 1985.8430609605 39287.180252472
103	188979 1891 2280 48282 27 131 105 20.2 23.4 2361 53308.2
102	190870 3034 2280 48282 27 131 105 30.459643776509 2007.2937847978 97759.728167634 128420762.73784
vector 496 RSUExampleScenario3.node[100].veinsmobility posx ETV
vector 497 RSUExampleScenario3.node[100].veinsmobility posy ETV
vector 498 RSUExampleScenario3.node[98].veinsmobility acceleration ETV
vector 499 RSUExampleScenario3.node[98].veinsmobility co2emission ETV
vector 500 RSUExampleScenario3.node[99].veinsmobility acceleration ETV
vector 501 RSUExampleScenario3.node[99].veinsmobility co2emission ETV
vector 502 RSUExampleScenario3.node[101].veinsmobility posx ETV
vector 503 RSUExampleScenario3.node[101].veinsmobility posy ETV
vector 504 RSUExampleScenario3.node[100].veinsmobility speed ETV
vector 505 RSUExampleScenario3.node[100].veinsmobility acceleration ETV
vector 506 RSUExampleScenario3.node[100].veinsmobility co2emission ETV
vector 507 RSUExampleScenario3.node[101].veinsmobility speed ETV
vector 508 RSUExampleScenario3.node[102].veinsmobility posx ETV
vector 509 RSUExampleScenario3.node[102].veinsmobility posy ETV
vector 510 RSUExampleScenario3.node[103].veinsmobility posx ETV
vector 511 RSUExampleScenario3.node[103].veinsmobility posy ETV
vector 512 RSUExampleScenario3.node[101].veinsmobility acceleration ETV
vector 513 RSUExampleScenario3.node[101].veinsmobility co2emission ETV
vector 514 RSUExampleScenario3.node[102].veinsmobility speed ETV
vector 515 RSUExampleScenario3.node[103].veinsmobility speed ETV
vector 516 RSUExampleScenario3.node[102].veinsmobility acceleration ETV
vector 517 RSUExampleScenario3.node[102].veinsmobility co2emission ETV
vector 518 RSUExampleScenario3.node[103].veinsmobility acceleration ETV
vector 519 RSUExampleScenario3.node[103].veinsmobility co2emission ETV
vector 520 RSUExampleScenario3.node[104].veinsmobility posx ETV
vector 521 RSUExampleScenario3.node[104].veinsmobility posy ETV
vector 522 RSUExampleScenario3.node[105].veinsmobility posx ETV
vector 523 RSUExampleScenario3.node[105].veinsmobility posy ETV
vector 524 RSUExampleScenario3.node[104].veinsmobility speed ETV
vector 525 RSUExampleScenario3.node[105].veinsmobility speed ETV
129	195916 3061 3885 53586 34 139 106 0.84289572570722 12.421610807605 339.65303763908 1466.1203610878
128	198977 3313 3885 53586 34 139 106 -1.0012307390009 2.14617604492 17.439198430022 39.722173772265
125	202290 3109 3337 53586 33 139 107 2.6159308393905 20.063776681251 1995.8231718159 38225.859424001
121	205399 1958 3330 53586 32 139 108 23.4 23.4 2527.2 59136.48
120	207357 3129 3330 53586 32 139 108 30.174303563889 2016.6169748214 104370.73988625 139559459.62046
vector 526 RSUExampleScenario3.node[106].veinsmobility posx ETV
vector 527 RSUExampleScenario3.node[106].veinsmobility posy ETV
vector 528 RSUExampleScenario3.node[107].veinsmobility posx ETV
vector 529 RSUExampleScenario3.node[107].veinsmobility posy ETV
vector 530 RSUExampleScenario3.node[104].veinsmobility acceleration ETV
vector 531 RSUExampleScenario3.node[104].veinsmobility co2emission ETV
vector 532 RSUExampleScenario3.node[105].veinsmobility acceleration ETV
vector 533 RSUExampleScenario3.node[105].veinsmobility co2emission ETV
93	211028 3125 1899 55416 24 140 117 0.973 12.010782755475 338.75828869961 1409.6682439165
92	214153 3523 1899 55416 24 140 117 -1.0797395297845 2.1747199024679 14.418674010549 45.695608372289
85	217676 3298 1510 55416 23 140 118 3.8245124060105 18.252936092504 1998.8627854417 34661.969415154
83	220974 2028 1503 55416 22 140 119 20.2 23.4 2608.6 57486.04
82	223002 3321 1503 55416 22 140 119 30.966206419658 2022.5324285653 115224.59048434 154418564.27434
141	226323 2987 4480 55416 37 140 104 0.66941198119526 12.874316255683 345.73684916296 1660.9756157862
140	229310 3236 4480 55416 37 140 104 -1.1711854722941 2.0557826152584 17.153354397351 42.95839934031
134	232546 3048 3893 55416 36 140 105 3.8767973691343 22.813025521691 1987.7288637735 38450.462056113
131	235594 1926 3886 55416 35 140 106 20.2 23.4 2448.4 56646.16
130	237520 3074 3886 55416 35 140 106 30.964527445079 2009.0914985444 103292.72790376 137868128.54239
vector 534 RSUExampleScenario3.node[106].veinsmobility speed ETV
vector 535 RSUExampleScenario3.node[107].veinsmobility speed ETV
vector 536 RSUExampleScenario3.node[106].veinsmobility acceleration ETV
vector 537 RSUExampleScenario3.node[106].veinsmobility co2emission ETV
vector 538 RSUExampleScenario3.node[107].veinsmobility acceleration ETV
vector 539 RSUExampleScenario3.node[107].veinsmobility co2emission ETV
147	241010 3019 5116 57236 39 142 104 0.95905523378182 11.170408823707 334.46327085797 1385.3581177081
146	244029 3268 5116 57236 39 142 104 -0.45719709791776 2.1803296920168 17.346582680722 36.73121957191
144	247297 3053 4487 57236 38 142 105 2.5648390722213 20.032834814327 1998.4278699233 38999.255515924
137	250350 1930 4480 57236 37 142 106 20.2 23.4 2429.2 55809.04
136	252280 3088 4480 57236 37 142 106 30.174583123297 2019.5425024728 103655.62261546 139740394.21724
169	255368 2746 6511 57236 45 142 98 0.25328230955885 18.928561048808 406.18812291424 3222.6611455075
168	258114 3042 6511 57236 45 142 98 -1.2027740600039 2.1682436908269 22.717944281654 75.71458571534
164	261156 2889 5802 57236 44 142 99 4.0571401998349 28.880848378539 1995.6976654742 41647.623808949
161	264045 1828 5795 57236 43 142 100 20.2 23.4 2314.4 53639.84
160	265873 2919 5795 57236 43 142 100 31.161923708672 2015.3728003543 99084.59102549 133469600.31994
vector 540 RSUExampleScenario3.node[108].veinsmobility posx ETV
vector 541 RSUExampleScenario3.node[108].veinsmobility posy ETV
vector 542 RSUExampleScenario3.node[109].veinsmobility posx ETV
vector 543 RSUExampleScenario3.node[109].veinsmobility posy ETV
116	269048 3125 3045 57237 31 143 113 0.59993704595723 16.878594920693 403.59961696704 2816.1962927989
115	272173 3485 3045 57237 31 143 113 -0.93503679726903 2.2168167067226 25.588912617838 77.089810031857
114	275658 3310 2757 57237 30 143 114 2.345114349237 27.934026967074 1994.7069131891 37185.150668727
107	278968 2085 2753 57237 29 143 115 20.2 23.4 2521.4 55574.84
106	281053 3328 2753 57237 29 143 115 30.1 2011.3858326867 105073.67289596 134023817.00029
vector 544 RSUExampleScenario3.node[108].veinsmobility speed ETV
vector 545 RSUExampleScenario3.node[109].veinsmobility speed ETV
97	284511 3216 2279 57244 26 144 119 0.11496849752464 17.740274012162 408.76934207566 2836.4185870107
96	287727 3554 2279 57244 26 144 119 -1.0121093289139 2.1534757467872 25.953995634472 70.763733096746
94	291281 3363 1906 57244 25 144 120 2.9603339288077 28.914329563279 1990.7631527123 35961.388223394
87	294644 2068 1899 57244 24 144 121 20.2 23.4 2610.6 56627.88
86	296712 3390 1899 57244 24 144 121 30.245738806365 2007.9802316073 108337.739442 134803827.8744
vector 546 RSUExampleScenario3.node[108].veinsmobility acceleration ETV
vector 547 RSUExampleScenario3.node[108].veinsmobility co2emission ETV
vector 548 RSUExampleScenario3.node[109].veinsmobility acceleration ETV
vector 549 RSUExampleScenario3.node[109].veinsmobility co2emission ETV
vector 550 RSUExampleScenario3.node[110].veinsmobility posx ETV
vector 551 RSUExampleScenario3.node[110].veinsmobility posy ETV
vector 552 RSUExampleScenario3.node[111].veinsmobility posx ETV
vector 553 RSUExampleScenario3.node[111].veinsmobility posy ETV
vector 554 RSUExampleScenario3.node[110].veinsmobility speed ETV
vector 555 RSUExampleScenario3.node[111].veinsmobility speed ETV
109	300774 3284 2753 59045 29 147 119 0.973 11.589479511417 369.48434548836 1819.3948455403
108	304058 3690 2753 59045 29 147 119 -1.1647831806859 2.1442735748691 17.265515229976 59.662438998309
104	307748 3487 2287 59045 28 147 120 3.594413632819 20.98317581736 1995.4890155676 35088.641284854
101	311235 2195 2280 59045 27 147 121 20.2 23.4 2578.6 55232.68
100	313430 3515 2280 59045 27 147 121 30.767478752544 2017.8083005876 112380.39826779 144303691.38771
vector 556 RSUExampleScenario3.node[112].veinsmobility posx ETV
vector 557 RSUExampleScenario3.node[112].veinsmobility posy ETV
vector 558 RSUExampleScenario3.node[113].veinsmobility posx ETV
vector 559 RSUExampleScenario3.node[113].veinsmobility posy ETV
vector 560 RSUExampleScenario3.node[110].veinsmobility acceleration ETV
vector 561 RSUExampleScenario3.node[110].veinsmobility co2emission ETV
vector 562 RSUExampleScenario3.node[111].veinsmobility acceleration ETV
vector 563 RSUExampleScenario3.node[111].veinsmobility co2emission ETV
127	317487 3140 3885 60857 34 148 115 0.85968910600773 12.227886311427 370.72582720278 1980.291741796
126	320627 3558 3885 60857 34 148 115 -0.95491169100562 2.1457083195495 18.543228502513 66.511259221207
124	324185 3379 3337 60857 33 148 116 3.1492471487929 21.692475651306 1990.7113834922 35655.041332525
119	327564 2129 3330 60857 32 148 117 20.2 23.4 2523.4 54716.68
118	329693 3405 3330 60857 32 148 117 30.34832796319 2012.1759243055 113308.10261343 150795165.46153
vector 564 RSUExampleScenario3.node[112].veinsmobility speed ETV
vector 565 RSUExampleScenario3.node[113].veinsmobility speed ETV
123	333228 3366 3330 60864 32 149 118 0.973 11.262274552793 330.65898297529 1267.5396183857
122	336594 3706 3330 60864 32 149 118 -0.81663395354216 2.1487749029719 14.364890049307 37.453414718048
117	340300 3451 3045 60864 31 149 119 3.8484563470868 18.246618215085 1982.8942226091 33751.641328496
113	343751 2182 2757 60864 30 149 120 20.2 23.4 2596.8 56498.88
112	345933 3496 2757 60864 30 149 120 31.166626015163 2007.069166755 122141.45038877 167294220.76766
vector 566 RSUExampleScenario3.node[112].veinsmobility acceleration ETV
vector 567 RSUExampleScenario3.node[112].veinsmobility co2emission ETV
vector 568 RSUExampleScenario3.node[113].veinsmobility acceleration ETV
vector 569 RSUExampleScenario3.node[113].veinsmobility co2emission ETV
37	349715 3932 473 62497 10 150 141 1.6998078785433 9.0366789428619 318.05930025177 835.00062714455
36	353647 4276 473 62497 10 150 141 -0.10813608528813 2.1222010023938 12.197641359076 23.824427658703
34	357923 3957 316 62497 9 150 142 2.2451491423897 14.460929688382 1999.7805993845 28540.39456634
27	361880 2420 309 62497 8 150 143 20.2 20.2 2888.6 58349.72
26	364300 3966 309 62497 8 150 143 30.1 2023.3336706785 143338.21815474 193875043.38928
vector 570 RSUExampleScenario3.node[114].veinsmobility posx ETV
vector 571 RSUExampleScenario3.node[114].veinsmobility posy ETV
vector 572 RSUExampleScenario3.node[115].veinsmobility posx ETV
vector 573 RSUExampleScenario3.node[115].veinsmobility posy ETV
191	368522 2864 8153 62498 50 151 102 0.94777557713662 14.638613979184 380.07684818755 2351.1418827892
190	371386 3194 8153 62498 50 151 102 -1.0828032447018 2.1334934236645 20.207434379666 61.225286428202
185	374580 3022 7363 62498 49 151 103 2.9832655421773 23.636328734691 1985.3115565272 41141.663492538
181	377602 1914 7356 62498 48 151 104 23.4 23.4 2433.6 56946.24
180	379516 3040 7356 62498 48 151 104 30.250858463238 2006.060182029 93278.126322113 122263403.53939
vector 574 RSUExampleScenario3.node[114].veinsmobility speed ETV
vector 575 RSUExampleScenario3.node[115].veinsmobility speed ETV
vector 576 RSUExampleScenario3.node[116].veinsmobility posx ETV
vector 577 RSUExampleScenario3.node[116].veinsmobility posy ETV
vector 578 RSUExampleScenario3.node[114].veinsmobility acceleration ETV
vector 579 RSUExampleScenario3.node[114].veinsmobility co2emission ETV
vector 580 RSUExampleScenario3.node[115].veinsmobility acceleration ETV
vector 581 RSUExampleScenario3.node[115].veinsmobility co2emission ETV
vector 582 RSUExampleScenario3.node[117].veinsmobility posx ETV
vector 583 RSUExampleScenario3.node[117].veinsmobility posy ETV
vector 584 RSUExampleScenario3.node[116].veinsmobility speed ETV
219	383293 2717 10881 64306 58 154 97 -0.36210426190909 25.848519319563 555.28193140362 6641.7195616381
218	386010 3027 10881 64306 58 154 97 -1.9726808674128 2.1196904624137 31.340005763224 97.003526257399
214	389037 2883 9974 64306 57 154 98 3.7661975132614 37.543954012729 2000.5064735424 53901.582722158
211	391920 1835 9967 64306 56 154 99 20.2 23.4 2291 53092.28
210	393755 2911 9967 64306 56 154 99 30.968773616467 2015.9747144611 73779.531859021 86720089.720212
vector 585 RSUExampleScenario3.node[116].veinsmobility acceleration ETV
vector 586 RSUExampleScenario3.node[116].veinsmobility co2emission ETV
vector 587 RSUExampleScenario3.node[117].veinsmobility speed ETV
vector 588 RSUExampleScenario3.node[118].veinsmobility posx ETV
vector 589 RSUExampleScenario3.node[118].veinsmobility posy ETV
vector 590 RSUExampleScenario3.node[119].veinsmobility posx ETV
vector 591 RSUExampleScenario3.node[119].veinsmobility posy ETV
vector 592 RSUExampleScenario3.node[117].veinsmobility acceleration ETV
vector 593 RSUExampleScenario3.node[117].veinsmobility co2emission ETV
vector 594 RSUExampleScenario3.node[118].veinsmobility speed ETV
vector 595 RSUExampleScenario3.node[119].veinsmobility speed ETV
vector 596 RSUExampleScenario3.node[118].veinsmobility acceleration ETV
vector 597 RSUExampleScenario3.node[118].veinsmobility co2emission ETV
vector 598 RSUExampleScenario3.node[119].veinsmobility acceleration ETV
vector 599 RSUExampleScenario3.node[119].veinsmobility co2emission ETV
vector 600 RSUExampleScenario3.node[120].veinsmobility posx ETV
vector 601 RSUExampleScenario3.node[120].veinsmobility posy ETV
vector 602 RSUExampleScenario3.node[121].veinsmobility posx ETV
vector 603 RSUExampleScenario3.node[121].veinsmobility posy ETV
157	397945 3451 5794 68187 42 159 118 1.3796868934743 9.5563865463369 318.63571036122 1040.5561192748
156	401396 3744 5794 68187 42 159 118 -0.23325832736211 2.0713552320097 13.912742424056 26.727499739609
154	405140 3481 5124 68187 41 159 119 3.4139662290729 17.339096949813 1993.4821258564 33930.580694475
151	408621 2202 5117 68187 40 159 120 20.2 23.4 2523.2 53289.92
150	410823 3514 5117 68187 40 159 120 30.464985517247 2017.4043658321 119028.17878285 160522505.28638
vector 604 RSUExampleScenario3.node[120].veinsmobility speed ETV
vector 605 RSUExampleScenario3.node[121].veinsmobility speed ETV
vector 606 RSUExampleScenario3.node[120].veinsmobility acceleration ETV
vector 607 RSUExampleScenario3.node[120].veinsmobility co2emission ETV
vector 608 RSUExampleScenario3.node[121].veinsmobility acceleration ETV
vector 609 RSUExampleScenario3.node[121].veinsmobility co2emission ETV
vector 610 RSUExampleScenario3.node[122].veinsmobility posx ETV
vector 611 RSUExampleScenario3.node[122].veinsmobility posy ETV
vector 612 RSUExampleScenario3.node[123].veinsmobility posx ETV
vector 613 RSUExampleScenario3.node[123].veinsmobility posy ETV
vector 614 RSUExampleScenario3.node[122].veinsmobility speed ETV
vector 615 RSUExampleScenario3.node[123].veinsmobility speed ETV
vector 616 RSUExampleScenario3.node[124].veinsmobility posx ETV
vector 617 RSUExampleScenario3.node[124].veinsmobility posy ETV
vector 618 RSUExampleScenario3.node[125].veinsmobility posx ETV
vector 619 RSUExampleScenario3.node[125].veinsmobility posy ETV
vector 620 RSUExampleScenario3.node[122].veinsmobility acceleration ETV
vector 621 RSUExampleScenario3.node[122].veinsmobility co2emission ETV
vector 622 RSUExampleScenario3.node[123].veinsmobility acceleration ETV
vector 623 RSUExampleScenario3.node[123].veinsmobility co2emission ETV
vector 624 RSUExampleScenario3.node[124].veinsmobility speed ETV
vector 625 RSUExampleScenario3.node[125].veinsmobility speed ETV
143	415811 3663 4480 72002 37 165 129 0.973 10.05379240724 326.32111111825 1053.9362256412
142	419474 4069 4480 72002 37 165 129 -0.82930796356371 2.1161869358877 12.32503433052 33.376649689791
135	423543 3792 3893 72002 36 165 130 3.5677951142842 15.90256839765 1993.5132605401 30962.605910955
133	427335 2401 3886 72002 35 165 131 20.2 23.4 2742.2 57638.84
132	429736 3824 3886 72002 35 165 131 30.607639503183 2018.0015865498 130992.65870716 176256593.8722
vector 626 RSUExampleScenario3.node[124].veinsmobility acceleration ETV
vector 627 RSUExampleScenario3.node[124].veinsmobility co2emission ETV
vector 628 RSUExampleScenario3.node[125].veinsmobility acceleration ETV
vector 629 RSUExampleScenario3.node[125].veinsmobility co2emission ETV
vector 630 RSUExampleScenario3.node[126].veinsmobility posx ETV
vector 631 RSUExampleScenario3.node[126].veinsmobility posy ETV
vector 632 RSUExampleScenario3.node[127].veinsmobility posx ETV
vector 633 RSUExampleScenario3.node[127].veinsmobility posy ETV
vector 634 RSUExampleScenario3.node[126].veinsmobility speed ETV
vector 635 RSUExampleScenario3.node[127].veinsmobility speed ETV
91	434232 4035 1899 73963 24 168 145 0.973 9.5911945519796 328.1241224214 981.08829980698
90	438267 4412 1899 73963 24 168 145 -0.82582951220822 2.150568319445 11.355569610144 30.323648095663
84	442679 4105 1510 73963 23 168 146 4.17656536565 15.645892117858 1988.1821209224 27755.929639725
81	446784 2532 1503 73963 22 168 147 20.2 23.4 3004.6 61516.6
80	449316 4137 1503 73963 22 168 147 31.183508756106 2013.1047190421 144782.31720857 188982346.74953
vector 636 RSUExampleScenario3.node[128].veinsmobility posx ETV
vector 637 RSUExampleScenario3.node[128].veinsmobility posy ETV
vector 638 RSUExampleScenario3.node[126].veinsmobility acceleration ETV
vector 639 RSUExampleScenario3.node[126].veinsmobility co2emission ETV
vector 640 RSUExampleScenario3.node[127].veinsmobility acceleration ETV
vector 641 RSUExampleScenario3.node[127].veinsmobility co2emission ETV
vector 642 RSUExampleScenario3.node[129].veinsmobility posx ETV
vector 643 RSUExampleScenario3.node[129].veinsmobility posy ETV
vector 644 RSUExampleScenario3.node[128].veinsmobility speed ETV
vector 645 RSUExampleScenario3.node[128].veinsmobility acceleration ETV
vector 646 RSUExampleScenario3.node[128].veinsmobility co2emission ETV
vector 647 RSUExampleScenario3.node[129].veinsmobility speed ETV
vector 648 RSUExampleScenario3.node[130].veinsmobility posx ETV
vector 649 RSUExampleScenario3.node[130].veinsmobility posy ETV
vector 650 RSUExampleScenario3.node[131].veinsmobility posx ETV
vector 651 RSUExampleScenario3.node[131].veinsmobility posy ETV
vector 652 RSUExampleScenario3.node[129].veinsmobility acceleration ETV
vector 653 RSUExampleScenario3.node[129].veinsmobility co2emission ETV
vector 654 RSUExampleScenario3.node[130].veinsmobility speed ETV
vector 655 RSUExampleScenario3.node[131].veinsmobility speed ETV
vector 656 RSUExampleScenario3.node[130].veinsmobility acceleration ETV
vector 657 RSUExampleScenario3.node[130].veinsmobility co2emission ETV
vector 658 RSUExampleScenario3.node[131].veinsmobility acceleration ETV
vector 659 RSUExampleScenario3.node[131].veinsmobility co2emission ETV
vector 660 RSUExampleScenario3.node[132].veinsmobility posx ETV
vector 661 RSUExampleScenario3.node[132].veinsmobility posy ETV
vector 662 RSUExampleScenario3.node[133].veinsmobility posx ETV
vector 663 RSUExampleScenario3.node[133].veinsmobility posy ETV
vector 664 RSUExampleScenario3.node[132].veinsmobility speed ETV
vector 665 RSUExampleScenario3.node[133].veinsmobility speed ETV
196	455469 3529 8625 79962 52 176 125 0.973 15.500507659689 398.93142361359 2022.6137796358
195	458998 3931 8625 79962 52 176 125 -0.98464167568813 2.1375583555083 22.733041373335 57.476495854008
194	462929 3714 8157 79962 51 176 126 2.328282854218 25.118867624903 1995.8744298937 37664.681026055
187	466643 2355 8153 79962 50 176 127 20.2 23.4 2859.8 64656.92
186	468998 3731 8153 79962 50 176 127 30.1 2014.8119713377 99492.084229944 120789856.74971
vector 666 RSUExampleScenario3.node[134].veinsmobility posx ETV
vector 667 RSUExampleScenario3.node[134].veinsmobility posy ETV
vector 668 RSUExampleScenario3.node[135].veinsmobility posx ETV
vector 669 RSUExampleScenario3.node[135].veinsmobility posy ETV
vector 670 RSUExampleScenario3.node[132].veinsmobility acceleration ETV
vector 671 RSUExampleScenario3.node[132].veinsmobility co2emission ETV
vector 672 RSUExampleScenario3.node[133].veinsmobility acceleration ETV
vector 673 RSUExampleScenario3.node[133].veinsmobility co2emission ETV
176	473271 3764 6937 82022 47 177 131 0.973 17.127098498239 422.573457206 2488.7592866772
175	477035 4119 6937 82022 47 177 131 -1.1279530366039 2.1029754834692 23.776308343596 61.379274108238
174	481154 3875 6515 82022 46 177 132 2.773775101208 27.579554774018 1984.8519139438 38751.235852046
167	485029 2459 6511 82022 45 177 133 20.2 23.4 2929.8 64872.84
166	487488 3905 6511 82022 45 177 133 30.247443591853 2003.5725176124 97544.208282654 113398170.0767
vector 674 RSUExampleScenario3.node[134].veinsmobility speed ETV
vector 675 RSUExampleScenario3.node[135].veinsmobility speed ETV
vector 676 RSUExampleScenario3.node[134].veinsmobility acceleration ETV
vector 677 RSUExampleScenario3.node[134].veinsmobility co2emission ETV
vector 678 RSUExampleScenario3.node[135].veinsmobility acceleration ETV
vector 679 RSUExampleScenario3.node[135].veinsmobility co2emission ETV
237	491809 3185 12938 83896 63 179 117 -0.79295278746822 23.744399721224 487.04053990998 4865.6171046854
236	494994 3615 12938 83896 63 179 117 -1.6597113742743 2.2442088366486 26.785214301109 128.3199287861
234	498609 3488 11950 83896 62 179 118 3.1811570800655 35.394245611117 2006.2915383531 42736.773989057
229	502097 2222 11943 83896 61 179 119 20.2 23.4 2611.8 57625.56
228	504319 3516 11943 83896 61 179 119 30.470747361796 2023.6653238561 94399.033378563 111945906.12382
vector 680 RSUExampleScenario3.node[136].veinsmobility posx ETV
vector 681 RSUExampleScenario3.node[136].veinsmobility posy ETV
vector 682 RSUExampleScenario3.node[137].veinsmobility posx ETV
vector 683 RSUExampleScenario3.node[137].veinsmobility posy ETV
226	508091 3384 11416 83897 60 180 121 0.45892876963238 22.267577002875 486.13459351771 4764.6624881199
225	511475 3772 11416 83897 60 180 121 -1.6575260131689 2.1144375661714 29.055176018368 112.33810542549
224	515247 3602 10885 83897 59 180 122 2.5287756429143 34.549784848684 2002.8537153179 41947.797266532
217	518849 2295 10881 83897 58 180 123 20.2 23.4 2702.2 59676.28
216	521144 3639 10881 83897 58 180 123 30.125006752161 2018.3976663361 97418.596108959 113830180.92315
vector 684 RSUExampleScenario3.node[136].veinsmobility speed ETV
vector 685 RSUExampleScenario3.node[137].veinsmobility speed ETV
vector 686 RSUExampleScenario3.node[136].veinsmobility acceleration ETV
vector 687 RSUExampleScenario3.node[136].veinsmobility co2emission ETV
vector 688 RSUExampleScenario3.node[137].veinsmobility acceleration ETV
vector 689 RSUExampleScenario3.node[137].veinsmobility co2emission ETV
vector 690 RSUExampleScenario3.node[138].veinsmobility posx ETV
vector 691 RSUExampleScenario3.node[138].veinsmobility posy ETV
vector 692 RSUExampleScenario3.node[139].veinsmobility posx ETV
vector 693 RSUExampleScenario3.node[139].veinsmobility posy ETV
49	525455 4802 604 85772 13 183 171 1.5070702158408 6.2462383575015 328.16831340338 690.20901460409
48	530257 5243 604 85772 13 183 171 -0.11076908962103 2.0141899738507 8.8707978782048 16.628988276807
45	535500 4837 479 85772 12 183 172 2.8722853171715 11.765218594712 1988.4287371175 23144.301093325
43	540337 2971 474 85772 11 183 173 20.2 23.4 3616.2 75892.68
42	543308 4851 474 85772 11 183 173 30.25222177449 2013.2947994343 174286.64733072 234517689.92752
vector 694 RSUExampleScenario3.node[138].veinsmobility speed ETV
vector 695 RSUExampleScenario3.node[139].veinsmobility speed ETV
183	548289 3983 7356 85779 48 184 137 0.973 8.4261116361629 321.69761359069 928.22525829378
182	552272 4353 7356 85779 48 184 137 -0.6534803629641 2.0425985852093 11.060998144656 24.477422432825
177	556625 4059 6937 85779 47 184 138 4.2554835246296 15.316481669285 1993.8168188039 29389.843423801
173	560684 2575 6515 85779 46 184 139 20.2 23.4 2980.6 64251.64
172	563259 4091 6515 85779 46 184 139 31.165374314078 2019.8283812439 136023.52487593 183205764.82939
vector 696 RSUExampleScenario3.node[140].veinsmobility posx ETV
vector 697 RSUExampleScenario3.node[140].veinsmobility posy ETV
vector 698 RSUExampleScenario3.node[141].veinsmobility posx ETV
vector 699 RSUExampleScenario3.node[141].veinsmobility posy ETV
vector 700 RSUExampleScenario3.node[138].veinsmobility acceleration ETV
vector 701 RSUExampleScenario3.node[138].veinsmobility co2emission ETV
vector 702 RSUExampleScenario3.node[139].veinsmobility acceleration ETV
vector 703 RSUExampleScenario3.node[139].veinsmobility co2emission ETV
vector 704 RSUExampleScenario3.node[140].veinsmobility speed ETV
vector 705 RSUExampleScenario3.node[141].veinsmobility speed ETV
vector 706 RSUExampleScenario3.node[140].veinsmobility acceleration ETV
vector 707 RSUExampleScenario3.node[140].veinsmobility co2emission ETV
vector 708 RSUExampleScenario3.node[141].veinsmobility acceleration ETV
vector 709 RSUExampleScenario3.node[141].veinsmobility co2emission ETV
vector 710 RSUExampleScenario3.node[142].veinsmobility posx ETV
vector 711 RSUExampleScenario3.node[142].veinsmobility posy ETV
vector 712 RSUExampleScenario3.node[143].veinsmobility posx ETV
vector 713 RSUExampleScenario3.node[143].veinsmobility posy ETV
vector 714 RSUExampleScenario3.node[142].veinsmobility speed ETV
vector 715 RSUExampleScenario3.node[143].veinsmobility speed ETV
vector 716 RSUExampleScenario3.node[144].veinsmobility posx ETV
vector 717 RSUExampleScenario3.node[144].veinsmobility posy ETV
vector 718 RSUExampleScenario3.node[142].veinsmobility acceleration ETV
vector 719 RSUExampleScenario3.node[142].veinsmobility co2emission ETV
vector 720 RSUExampleScenario3.node[143].veinsmobility acceleration ETV
vector 721 RSUExampleScenario3.node[143].veinsmobility co2emission ETV
vector 722 RSUExampleScenario3.node[145].veinsmobility posx ETV
vector 723 RSUExampleScenario3.node[145].veinsmobility posy ETV
vector 724 RSUExampleScenario3.node[144].veinsmobility speed ETV
207	569301 3826 9966 91918 55 191 137 0.973 10.607667129273 358.00260989783 1429.4669982448
206	573127 4334 9966 91918 55 191 137 -1.1750759966119 2.0861096152663 15.300718742295 57.268336166352
204	577461 4070 9096 91918 54 191 138 2.9976289169416 18.306304677315 1991.0724214538 30822.257732453
199	581531 2589 9089 91918 53 191 139 20.2 23.4 3089.4 68995.32
198	584120 4097 9089 91918 53 191 139 30.348460524653 2014.5914850107 124266.31557103 160686002.86806
vector 725 RSUExampleScenario3.node[144].veinsmobility acceleration ETV
vector 726 RSUExampleScenario3.node[144].veinsmobility co2emission ETV
vector 727 RSUExampleScenario3.node[145].veinsmobility speed ETV
vector 728 RSUExampleScenario3.node[146].veinsmobility posx ETV
vector 729 RSUExampleScenario3.node[146].veinsmobility posy ETV
vector 730 RSUExampleScenario3.node[147].veinsmobility posx ETV
vector 731 RSUExampleScenario3.node[147].veinsmobility posy ETV
vector 732 RSUExampleScenario3.node[145].veinsmobility acceleration ETV
vector 733 RSUExampleScenario3.node[145].veinsmobility co2emission ETV
vector 734 RSUExampleScenario3.node[146].veinsmobility speed ETV
vector 735 RSUExampleScenario3.node[147].veinsmobility speed ETV
vector 736 RSUExampleScenario3.node[146].veinsmobility acceleration ETV
vector 737 RSUExampleScenario3.node[146].veinsmobility co2emission ETV
vector 738 RSUExampleScenario3.node[147].veinsmobility acceleration ETV
vector 739 RSUExampleScenario3.node[147].veinsmobility co2emission ETV
vector 740 RSUExampleScenario3.node[148].veinsmobility posx ETV
vector 741 RSUExampleScenario3.node[148].veinsmobility posy ETV
vector 742 RSUExampleScenario3.node[149].veinsmobility posx ETV
vector 743 RSUExampleScenario3.node[149].veinsmobility posy ETV
vector 744 RSUExampleScenario3.node[148].veinsmobility speed ETV
vector 745 RSUExampleScenario3.node[149].veinsmobility speed ETV
vector 746 RSUExampleScenario3.node[150].veinsmobility posx ETV
vector 747 RSUExampleScenario3.node[150].veinsmobility posy ETV
vector 748 RSUExampleScenario3.node[148].veinsmobility acceleration ETV
vector 749 RSUExampleScenario3.node[148].veinsmobility co2emission ETV
vector 750 RSUExampleScenario3.node[149].veinsmobility acceleration ETV
vector 751 RSUExampleScenario3.node[149].veinsmobility co2emission ETV
vector 752 RSUExampleScenario3.node[151].veinsmobility posx ETV
vector 753 RSUExampleScenario3.node[151].veinsmobility posy ETV
vector 754 RSUExampleScenario3.node[150].veinsmobility speed ETV
vector 755 RSUExampleScenario3.node[150].veinsmobility acceleration ETV
vector 756 RSUExampleScenario3.node[150].veinsmobility co2emission ETV
vector 757 RSUExampleScenario3.node[151].veinsmobility speed ETV
vector 758 RSUExampleScenario3.node[152].veinsmobility posx ETV
vector 759 RSUExampleScenario3.node[152].veinsmobility posy ETV
vector 760 RSUExampleScenario3.node[153].veinsmobility posx ETV
vector 761 RSUExampleScenario3.node[153].veinsmobility posy ETV
vector 762 RSUExampleScenario3.node[151].veinsmobility acceleration ETV
vector 763 RSUExampleScenario3.node[151].veinsmobility co2emission ETV
209	590840 4243 9966 101178 55 201 147 0.973 10.550873236129 356.38125773031 1274.3429629565
208	595083 4670 9966 101178 55 201 147 -0.94118951059665 2.2127932698559 16.336913479604 46.077923079467
205	599753 4366 9096 101178 54 201 148 2.4246601038835 18.839143323628 1992.0565500692 29512.890427062
201	604119 2780 9089 101178 53 201 149 20.2 23.4 3307.4 73773.32
200	606899 4404 9089 101178 53 201 149 30.125379381413 2013.872686254 130979.10722645 161935479.70901
vector 764 RSUExampleScenario3.node[152].veinsmobility speed ETV
vector 765 RSUExampleScenario3.node[153].veinsmobility speed ETV
233	611433 4136 11943 101185 61 202 142 0.3928478911236 15.675241083364 371.09693865237 1948.5104987247
232	615569 4513 11943 101185 61 202 142 -0.97987914629062 2.1702453897404 15.716155706136 53.253879359474
227	620082 4239 11416 101185 60 202 143 3.7716434788327 27.030223467725 1983.5381079193 32305.064963579
223	624321 2697 10885 101185 59 202 144 23.4 23.4 3369.6 78848.64
222	627018 4268 10885 101185 59 202 144 30.985985020174 2006.2322788484 119488.44797358 148631658.19192
vector 766 RSUExampleScenario3.node[152].veinsmobility acceleration ETV
vector 767 RSUExampleScenario3.node[152].veinsmobility co2emission ETV
vector 768 RSUExampleScenario3.node[153].veinsmobility acceleration ETV
vector 769 RSUExampleScenario3.node[153].veinsmobility co2emission ETV
vector 770 RSUExampleScenario3.node[154].veinsmobility posx ETV
vector 771 RSUExampleScenario3.node[154].veinsmobility posy ETV
vector 772 RSUExampleScenario3.node[155].veinsmobility posx ETV
vector 773 RSUExampleScenario3.node[155].veinsmobility posy ETV
149	631828 4875 5116 103467 39 204 166 1.5241575290431 7.3137731928488 326.58436092316 719.29414756205
148	636703 5294 5116 103467 39 204 166 -0.11332778499462 2.204797638366 9.9032427729697 19.918057416815
145	641997 4919 4487 103467 38 204 167 2.2394185913826 12.175447274364 1992.5825721427 23984.710023963
139	646916 3112 4480 103467 37 204 168 20.2 23.4 3451.2 71062.08
138	650028 4930 4480 103467 37 204 168 30.1 2017.3807715323 169144.39992991 228061324.39996
vector 774 RSUExampleScenario3.node[154].veinsmobility speed ETV
vector 775 RSUExampleScenario3.node[155].veinsmobility speed ETV
239	655088 4113 12938 103474 63 205 143 0.973 12.042327259745 371.61516982491 1571.407547935
238	659201 4556 12938 103474 63 205 143 -1.0350605612337 2.1284647400537 17.608752289713 51.124363565547
235	663757 4273 11950 103474 62 205 144 2.581921702151 20.272174450985 1989.7651434968 31777.210119326
231	668030 2721 11943 103474 61 205 145 23.4 23.4 3393 79396.2
230	670751 4290 11943 103474 61 205 145 30.125389364729 2010.1638101644 119558.51187954 146829563.05115
vector 776 RSUExampleScenario3.node[156].veinsmobility posx ETV
vector 777 RSUExampleScenario3.node[156].veinsmobility posy ETV
vector 778 RSUExampleScenario3.node[157].veinsmobility posx ETV
vector 779 RSUExampleScenario3.node[157].veinsmobility posy ETV
vector 780 RSUExampleScenario3.node[154].veinsmobility acceleration ETV
vector 781 RSUExampleScenario3.node[154].veinsmobility co2emission ETV
vector 782 RSUExampleScenario3.node[155].veinsmobility acceleration ETV
vector 783 RSUExampleScenario3.node[155].veinsmobility co2emission ETV
vector 784 RSUExampleScenario3.node[156].veinsmobility speed ETV
vector 785 RSUExampleScenario3.node[157].veinsmobility speed ETV
189	675713 4541 8153 105755 50 207 158 0.973 7.6139244166376 343.526754211 955.54505403051
188	680254 5040 8153 105755 50 207 158 -1.0482066635917 2.1356177843083 11.546308306744 35.224300842345
184	685294 4695 7363 105755 49 207 159 3.5069473166881 15.087819239138 1998.3719567099 26862.430330232
179	689989 2985 7356 105755 48 207 160 20.2 23.4 3376 71564.8
178	692974 4729 7356 105755 48 207 160 30.604586471204 2023.5210474263 143958.47427381 188133557.32232
276	697703 3758 16516 105755 73 207 135 0.973 18.40263505011 422.02160224363 2663.2636852029
275	701461 4259 16516 105755 73 207 135 -1.4541208221439 2.2091582905362 20.031471354995 85.992161202225
274	705720 4048 15941 105755 72 207 136 2.418301563783 27.814424058555 2004.4783999977 33944.614664138
267	709768 2581 15937 105755 71 207 137 20.2 23.4 3177 73760.04
266	712349 4071 15937 105755 71 207 137 30.125890121261 2023.9313039177 116945.02210556 145916937.79385
vector 786 RSUExampleScenario3.node[156].veinsmobility acceleration ETV
vector 787 RSUExampleScenario3.node[156].veinsmobility co2emission ETV
vector 788 RSUExampleScenario3.node[157].veinsmobility acceleration ETV
vector 789 RSUExampleScenario3.node[157].veinsmobility co2emission ETV
vector 790 RSUExampleScenario3.node[158].veinsmobility posx ETV
vector 791 RSUExampleScenario3.node[158].veinsmobility posy ETV
vector 792 RSUExampleScenario3.node[159].veinsmobility posx ETV
vector 793 RSUExampleScenario3.node[159].veinsmobility posy ETV
vector 794 RSUExampleScenario3.node[158].veinsmobility speed ETV
vector 795 RSUExampleScenario3.node[159].veinsmobility speed ETV
vector 796 RSUExampleScenario3.node[160].veinsmobility posx ETV
vector 797 RSUExampleScenario3.node[160].veinsmobility posy ETV
vector 798 RSUExampleScenario3.node[158].veinsmobility acceleration ETV
vector 799 RSUExampleScenario3.node[158].veinsmobility co2emission ETV
vector 800 RSUExampleScenario3.node[159].veinsmobility acceleration ETV
vector 801 RSUExampleScenario3.node[159].veinsmobility co2emission ETV
vector 802 RSUExampleScenario3.node[161].veinsmobility posx ETV
vector 803 RSUExampleScenario3.node[161].veinsmobility posy ETV
vector 804 RSUExampleScenario3.node[160].veinsmobility speed ETV
299	717699 3854 19252 110355 79 212 134 0.973 10.3450328834 362.19919166749 1399.3268595346
298	721553 4267 19252 110355 79 212 134 -1.4468038699013 2.060268198289 15.140985247397 48.573614332935
294	725820 4024 18156 110355 78 212 135 4.0723523134012 19.230062563197 1986.6598692337 32164.993415207
291	729844 2573 18149 110355 77 212 136 20.2 23.4 3144 72793.92
290	732417 4053 18149 110355 77 212 136 30.944311090251 2008.3816884105 119915.82418088 150103397.00559
vector 805 RSUExampleScenario3.node[160].veinsmobility acceleration ETV
vector 806 RSUExampleScenario3.node[160].veinsmobility co2emission ETV
vector 807 RSUExampleScenario3.node[161].veinsmobility speed ETV
vector 808 RSUExampleScenario3.node[162].veinsmobility posx ETV
vector 809 RSUExampleScenario3.node[162].veinsmobility posy ETV
vector 810 RSUExampleScenario3.node[163].veinsmobility posx ETV
vector 811 RSUExampleScenario3.node[163].veinsmobility posy ETV
vector 812 RSUExampleScenario3.node[161].veinsmobility acceleration ETV
vector 813 RSUExampleScenario3.node[161].veinsmobility co2emission ETV
289	737077 3983 18148 112872 76 214 139 0.973 14.116031627392 380.28604902099 1558.0178631497
288	741060 4412 18148 112872 76 214 139 -1.5962577874931 2.1381544749485 19.183553745649 56.528431021663
285	745472 4176 17092 112872 75 214 140 2.2758449508199 21.459398696469 1999.2877749075 31954.410562778
281	749648 2667 17085 112872 74 214 141 20.2 23.4 3280.2 76368.84
280	752315 4187 17085 112872 74 214 141 30.1 2021.0558582999 120872.46462269 152223215.90095
vector 814 RSUExampleScenario3.node[162].veinsmobility speed ETV
vector 815 RSUExampleScenario3.node[163].veinsmobility speed ETV
319	756632 3822 21699 112879 84 215 132 0.973 15.340932064003 408.29533541101 2120.369336252
318	760454 4179 21699 112879 84 215 132 -2.2707011404231 2.1338173498097 20.453550505796 76.876238727971
315	764633 3974 20520 112879 83 215 133 2.3039801646013 23.389103451127 1996.6497796325 33392.315446674
311	768607 2543 20513 112879 82 215 134 23.4 23.4 3135.6 73373.04
310	771150 3990 20513 112879 82 215 134 30.1 2015.5074588711 115400.07396868 147996103.17965
vector 816 RSUExampleScenario3.node[162].veinsmobility acceleration ETV
vector 817 RSUExampleScenario3.node[162].veinsmobility co2emission ETV
vector 818 RSUExampleScenario3.node[163].veinsmobility acceleration ETV
vector 819 RSUExampleScenario3.node[163].veinsmobility co2emission ETV
331	775426 3721 22800 115205 87 216 130 0.973 13.714575221339 405.186630748 2033.2388209176
330	779147 4117 22800 115205 87 216 130 -1.7691039505033 1.9862012751936 21.24314126964 68.390640334066
325	783264 3926 21707 115205 86 216 131 2.6948764879403 23.938017757581 1990.9994625212 33359.936985949
323	787190 2509 21700 115205 85 216 132 23.4 23.4 3088.8 72277.92
322	789699 3935 21700 115205 85 216 132 30.244859095779 2010.7370685947 114325.88899035 146273697.09027
vector 820 RSUExampleScenario3.node[164].veinsmobility posx ETV
vector 821 RSUExampleScenario3.node[164].veinsmobility posy ETV
vector 822 RSUExampleScenario3.node[165].veinsmobility posx ETV
vector 823 RSUExampleScenario3.node[165].veinsmobility posy ETV
[...]
5131	27221241 1734 1308148 1358608 1351 1403 53 0.973 6.3712999577417 91.523755178799 212.78807353883
5132	27222975 1767 1308149 1358608 1352 1403 52 30.772895163965 526.29456589408 15521.711436951 5880241.4708923
5133	27224742 1196 1308149 1358608 1352 1403 52 20.2 20.2 1050.4 21218.08
5134	27225938 1763 1308149 1358608 1352 1403 52 30.24715575262 429.75916738155 11949.132324104 3473004.3924858
5135	27227701 1196 1308149 1358608 1352 1403 52 20.2 23.4 1210.4 28194.08
5136	27228897 1720 1308156 1358608 1353 1403 51 3.440918579505 15.428123758715 497.6825061545 5262.5285034124
5137	27230617 1729 1308156 1358608 1353 1403 51 2.8869819865499 11.662676211853 403.62837251877 3281.7629050778
5138	27232346 1680 1310818 1358608 1354 1403 50 30.1 613.71033163176 15572.821100451 6439066.6057744
5139	27234026 1150 1310818 1358608 1354 1403 50 20.2 23.4 1096.4 24169.04
5140	27235176 1777 1310818 1358608 1354 1403 50 -1.262486161342 2.1999700289662 3.8691292845367 41.059575347581
5141	27236953 1468 1310818 1358608 1354 1403 50 0.973 10.373376359325 113.03693517233 524.73884743867
5142	27238421 1804 1310818 1358608 1354 1403 50 -0.96114197439554 2.0565497551858 8.2424309379393 24.557428496494
5143	27240225 1624 1310818 1358608 1354 1403 50 0.973 7.2902842305152 97.978010464155 296.09171990506
5144	27241849 1661 1310822 1358608 1355 1403 49 30.765241584936 414.75162875224 11023.039733346 3106041.8180031
5145	27243510 1127 1310822 1358608 1355 1403 49 23.4 23.4 1146.6 26830.44
5146	27244637 1660 1310822 1358608 1355 1403 49 2.2917896030894 16.084446332074 589.70309705364 7414.0909037725
5147	27246297 1697 1312267 1358608 1356 1403 48 -1.0591421329759 2.1935817238432 10.611170995749 41.205887615386
5148	27247994 1476 1312267 1358608 1356 1403 48 0.973 9.905125182396 131.04739976566 597.30273473607
5149	27249470 1628 1312267 1358608 1356 1403 48 3.7340375308411 12.133557688214 387.96069874924 3224.8336582829
5150	27251098 1582 1313700 1358608 1357 1403 47 30.345565126798 593.14951130658 14381.599858467 5798470.581319
5151	27252680 1081 1313700 1358608 1357 1403 47 20.2 23.4 1010.2 21828.76
5152	27253761 1597 1313700 1358608 1357 1403 47 30.125659140623 398.33800189861 10151.437287671 2762829.7814014
5153	27255358 1081 1313700 1358608 1357 1403 47 23.4 23.4 1099.8 25735.32
5154	27256439 1692 1313700 1358608 1357 1403 47 -1.0158637491864 1.9983173612459 7.4422976091958 23.728933819669
5155	27258131 1513 1313700 1358608 1357 1403 47 0.973 7.0778427836608 93.805141838328 294.32390708345
5156	27259644 1562 1313707 1358608 1358 1403 46 3.0403670658219 16.502332909608 567.20311527525 7342.2550778969
5157	27261206 1559 1313707 1358608 1358 1403 46 2.4074352954677 12.383908458599 372.53109091233 3141.8744810022
5158	27262765 1586 1316388 1358608 1359 1403 45 -1.474191962196 2.0281537363376 9.779987482381 40.206835944635
5159	27264351 1416 1316388 1358608 1359 1403 45 0.973 9.463096589893 130.71444913921 581.95479154987
5160	27265767 1615 1316388 1358608 1359 1403 45 -0.9827831150434 2.2003408426093 7.8652046936959 26.050688877046
5161	27267382 1435 1316388 1358608 1359 1403 45 0.973 7.4927179421607 90.23926253124 286.55537159151
5162	27268817 1492 1316389 1358608 1360 1403 44 30.938211790641 572.58720790111 13169.050187929 5172055.2924341
5163	27270309 1012 1316389 1358608 1360 1403 44 20.2 23.4 933.6 19907.04
5164	27271321 1493 1316389 1358608 1360 1403 44 30.465432301242 444.02688208912 9648.9680206223 2723833.9182024
5165	27272814 1012 1316389 1358608 1360 1403 44 20.2 23.4 988 22278.88
5166	27273826 1454 1316396 1358608 1361 1403 43 3.9003967244824 16.616632267332 546.11677432556 7304.006647638
5167	27275280 1453 1316396 1358608 1361 1403 43 3.3235455481771 14.043540701689 418.61932959773 4395.8274608548
5168	27276733 1423 1319061 1358608 1362 1403 42 30.12518831682 551.86624415705 11946.629175047 4537891.9425568
5169	27278156 966 1319061 1358608 1362 1403 42 20.2 23.4 880.4 18532.88
5170	27279122 1483 1319061 1358608 1362 1403 42 -1.2881388278353 2.1173003850738 8.940358387702 43.780761740026
5171	27280605 1307 1319061 1358608 1362 1403 42 0.973 9.9210126573324 125.52356456034 620.32026272996
5172	27281912 1493 1319061 1358608 1362 1403 42 -1.0205291119264 2.1148896108195 10.06275772027 36.321272502652
5173	27283405 1293 1319061 1358608 1362 1403 42 0.973 8.2251586900015 103.94438335865 450.853419189
5174	27284698 1392 1319065 1358608 1363 1403 41 31.169079180402 487.17488093709 9781.9345800421 3120705.0682069
5175	27286090 943 1319065 1358608 1363 1403 41 20.2 23.4 892.2 19520.04
5176	27287033 1389 1319065 1358608 1363 1403 41 2.404625982662 16.824481724367 527.38283023105 7224.8742458469
5177	27288422 1406 1320517 1358608 1364 1403 40 -1.2591099374405 2.1085795691679 10.57994851515 45.05552252739
5178	27289828 1239 1320517 1358608 1364 1403 40 0.973 9.2296097703637 121.79150232125 596.28634078854
5179	27291067 1357 1320517 1358608 1364 1403 40 4.002891105359 16.649389395333 460.81968534473 5659.1172776494
5180	27292424 1322 1321956 1358608 1365 1403 39 30.472414028853 530.35863866269 10668.76467119 3910569.18962
5181	27293746 897 1321956 1358608 1365 1403 39 20.2 23.4 807 16750.68
5182	27294643 1320 1321956 1358608 1365 1403 39 30.247423980395 381.94925330783 8021.5199322991 2113230.9226723
5183	27295963 897 1321956 1358608 1365 1403 39 23.4 23.4 912.6 21354.84
5184	27296860 1370 1321956 1358608 1365 1403 39 -1.14031243999 2.1437309604534 9.3907678443613 51.559044353578
5185	27298230 1131 1321956 1358608 1365 1403 39 0.973 9.59617270005 119.31048994448 673.04655868646
5186	27299361 1285 1321963 1358608 1366 1403 38 3.2854590574075 16.890357178897 504.16654143884 7073.0198838955
5187	27300646 1285 1321963 1358608 1366 1403 38 2.9448653376999 14.449831155339 355.62785810076 3500.9412514004
5188	27301931 1306 1324636 1358608 1367 1403 37 -1.3499578090625 2.2239607170131 9.8308419371068 46.523331422772
5189	27303237 1144 1324636 1358608 1367 1403 37 0.973 9.2666404092057 120.14498318813 637.71395787453
5190	27304381 1304 1324636 1358608 1367 1403 37 -1.2089850431936 2.1640418755915 6.7561106822674 45.100477946016
5191	27305685 1027 1324636 1358608 1367 1403 37 0.973 9.6218548547184 93.478408769675 455.41466658826
5192	27306712 1218 1324637 1358608 1368 1403 36 31.188617888672 506.73593146399 9462.3636371381 3331350.8039664
5193	27307930 828 1324637 1358608 1368 1403 36 20.2 23.4 733.6 14968.48
5194	27308758 1222 1324637 1358608 1368 1403 36 30.611711961959 465.00820019984 8225.9725474881 2541408.778139
5195	27309980 828 1324637 1358608 1368 1403 36 20.2 23.4 772 16642.72
5196	27310808 1185 1324644 1358608 1369 1403 35 4.1234873608508 16.833426722689 479.85660562228 6922.0163632509
5197	27311993 1186 1324644 1358608 1369 1403 35 3.4589662387819 14.431944371557 439.75109832023 5780.8207808483
5198	27313179 1155 1327301 1358608 1370 1403 34 30.247035759595 402.00108111963 6882.4826256399 1855227.1288615
5199	27314334 782 1327301 1358608 1370 1403 34 20.2 20.2 686.8 13873.36
5200	27315116 1138 1327301 1358608 1370 1403 34 30.1 365.64879657072 6720.3184915782 1733594.3322676
5201	27316254 782 1327301 1358608 1370 1403 34 23.4 23.4 795.6 18617.04
5202	27317036 1188 1327301 1358608 1370 1403 34 -1.3424597199136 2.1397755363211 8.8172601155037 42.063739521436
5203	27318224 1054 1327301 1358608 1370 1403 34 0.973 10.419730594223 112.89687128103 602.75434546066
5204	27319278 1201 1327301 1358608 1370 1403 34 -1.1841860025194 2.1299755942449 10.002985206074 34.814301659425
5205	27320479 1074 1327301 1358608 1370 1403 34 0.973 7.5274969419276 103.85268513094 471.34337871279
5206	27321553 1114 1327308 1358608 1371 1403 33 3.0153261844815 12.294434286912 376.61035208587 4459.4076835476
5207	27322667 1119 1327308 1358608 1371 1403 33 2.2877761543268 15.192068366549 339.7016256111 3771.1834673857
5208	27323786 1157 1329733 1358608 1372 1403 32 -0.10728587893536 2.0492477574619 9.2688171892634 17.049860958808
5209	27324943 1084 1329733 1358608 1372 1403 32 1.5500148345709 7.0260002660278 77.633785331765 247.56403816146
5210	27326027 1122 1329733 1358608 1372 1403 32 -1.2271714085969 2.1146290524144 6.932498023069 40.038634414813
5211	27327149 914 1329733 1358608 1372 1403 32 0.973 8.8267529705353 88.998192802635 430.18095658504
5212	27328063 1050 1329734 1358608 1373 1403 31 30.755830509699 381.99033985642 6087.3900799502 1575845.47506
5213	27329113 713 1329734 1358608 1373 1403 31 20.2 20.2 626.2 12649.24
5214	27329826 1050 1329734 1358608 1373 1403 31 30.341586292835 349.28789952907 5933.7662367784 1472520.9370221
5215	27330876 713 1329734 1358608 1373 1403 31 23.4 23.4 725.4 16974.36
5216	27331589 1015 1329741 1358608 1374 1403 30 3.6506777552815 14.93075545134 355.75333042079 4384.899708338
5217	27332604 1015 1329741 1358608 1374 1403 30 2.9371561385191 15.988822346958 322.25998842752 3757.4878580396
5218	27333619 980 1332148 1358608 1375 1403 29 30.124703837309 361.9115715635 5326.3809001202 1313214.260546
5219	27334599 667 1332148 1358608 1375 1403 29 20.2 20.2 585.8 11833.16
5220	27335266 1036 1332148 1358608 1375 1403 29 -0.58873722232581 2.0216064535035 8.5568963931181 22.276757385863
5221	27336302 938 1332148 1358608 1375 1403 29 0.973 8.4063230673732 75.115057422966 322.53075978391
5222	27337240 1026 1332148 1358608 1375 1403 29 -1.1911660186608 2.1892928550416 6.0533395649472 32.173809571877
5223	27338266 836 1332148 1358608 1375 1403 29 0.973 9.2101203638155 76.834909217022 364.30366142755
5224	27339102 947 1332152 1358608 1376 1403 28 30.765502558734 332.70533366649 5130.4578753914 1218358.9819646
5225	27340049 644 1332152 1358608 1376 1403 28 23.4 23.4 655.2 15331.68
5226	27340693 951 1332152 1358608 1376 1403 28 2.4437270715268 16.251065954961 337.03846385403 4333.9233233678
5227	27341644 961 1333582 1358608 1377 1403 27 -0.87730590096503 2.0748349483474 9.814372799476 28.578452110102
5228	27342605 848 1333582 1358608 1377 1403 27 0.973 10.157058649709 76.465726634379 387.28860150734
5229	27343453 916 1333582 1358608 1377 1403 27 3.5707606665625 18.435697611375 304.76005009354 3763.1482032008
5230	27344369 882 1334998 1358608 1378 1403 26 30.346114461693 341.57241902803 4565.8788051182 1070722.4122078
5231	27345251 598 1334998 1358608 1378 1403 26 20.2 20.2 525.2 10609.04
5232	27345849 880 1334998 1358608 1378 1403 26 30.125178077978 315.6853753087 4380.8257800837 981526.76993021
5233	27346729 598 1334998 1358608 1378 1403 26 23.4 23.4 608.4 14236.56
5234	27347327 912 1334998 1358608 1378 1403 26 -1.4437590632561 2.1668727795384 5.3276566727616 38.844255245289
5235	27348239 743 1334998 1358608 1378 1403 26 0.973 11.252193652684 80.007777537053 494.4853840692
5236	27348982 846 1335005 1358608 1379 1403 25 3.1908568762533 17.274705694405 316.11411633422 4268.5332161031
5237	27349828 847 1335005 1358608 1379 1403 25 2.4977216559505 18.52348727017 289.33333085298 3735.4273391665
5238	27350675 852 1337618 1358608 1380 1403 24 -0.86496739406902 2.1944463735633 9.1645869416765 31.126246863645
5239	27351527 736 1337618 1358608 1380 1403 24 0.973 10.471028409665 74.431242033431 442.39874656916
5240	27352263 842 1337618 1358608 1380 1403 24 -1.4691900971739 2.1032325204881 6.5973246753683 40.809253577538
5241	27353105 695 1337618 1358608 1380 1403 24 0.973 11.569590965015 78.03235494928 517.79089776781
5242	27353800 780 1337619 1358608 1381 1403 23 30.942350766485 320.27711143244 3767.594620241 828869.89588164
5243	27354580 529 1337619 1358608 1381 1403 23 20.2 20.2 464.6 9384.92
5244	27355109 778 1337619 1358608 1381 1403 23 30.47284090952 220.40820796108 2731.3557794466 407538.71728017
5245	27355887 529 1337619 1358608 1381 1403 23 23.4 23.4 538.2 12593.88
5246	27356416 746 1337626 1358608 1382 1403 22 3.7474691678592 19.409855262653 293.93613430693 4237.6326425844
5247	27357162 745 1337626 1358608 1382 1403 22 3.2014340356338 9.426845426978 193.70408170517 1756.6082729037
5248	27357907 714 1340202 1358608 1383 1403 21 30.177649894501 293.23631141839 3040.6973490052 611514.03616365
5249	27358621 483 1340202 1358608 1383 1403 21 20.2 23.4 456.2 9964.04
5250	27359104 737 1340202 1358608 1383 1403 21 -1.5238403539755 2.0628580669616 8.819078349713 36.176718815639
5251	27359841 614 1340202 1358608 1383 1403 21 0.973 11.709292168781 76.975506310011 564.90031230579
5252	27360455 758 1340202 1358608 1383 1403 21 -0.086311156949961 2.2011835917784 6.1923416290897 12.240575391118
5253	27361213 711 1340202 1358608 1383 1403 21 1.4414975258649 5.9361901640672 44.862056634762 126.41362459336
5254	27361924 678 1340206 1358608 1384 1403 20 31.140372581134 203.2671103036 2242.9461761572 312852.09652154
5255	27362602 460 1340206 1358608 1384 1403 20 23.4 23.4 468 10951.2
5256	27363062 678 1340206 1358608 1384 1403 20 2.6200359275107 21.367759217733 267.43050133629 4079.6823657991
5257	27363740 654 1341599 1358608 1385 1403 19 -1.8760734304777 2.2154685938242 8.2284982252763 50.210362765377
5258	27364394 565 1341599 1358608 1385 1403 19 0.973 12.481052415691 89.09461993906 708.7645599235
5259	27364959 645 1341599 1358608 1385 1403 19 3.8199037705823 11.298516326926 175.36875203426 1678.0227668187
5260	27365604 612 1342989 1358608 1386 1403 18 30.470010490697 257.14961526734 2207.8641994579 370113.94307619
5261	27366216 414 1342989 1358608 1386 1403 18 20.2 23.4 376.4 7902.8
5262	27366630 610 1342989 1358608 1386 1403 18 30.176058212577 185.74533267259 1806.0467424643 229499.6814428
5263	27367240 414 1342989 1358608 1386 1403 18 23.4 23.4 421.2 9856.08
5264	27367654 642 1342989 1358608 1386 1403 18 -0.43642041605372 1.930294161893 5.568098344616 14.497977878298
5265	27368296 570 1342989 1358608 1386 1403 18 0.973 6.9940383186611 40.529959833068 149.39474908751
5266	27368866 577 1342996 1358608 1387 1403 17 3.1243313160044 19.071434844839 231.82806507322 3539.1958075755
5267	27369443 577 1342996 1358608 1387 1403 17 2.6692742698339 12.520400412989 159.17601263005 1600.2180705836
5268	27370020 555 1345571 1358608 1388 1403 16 -1.8213738946908 2.0715591154527 12.305731037478 34.661558920791
5269	27370575 521 1345571 1358608 1388 1403 16 0.973 11.373222850347 75.987315561518 515.14365585823
5270	27371096 563 1345571 1358608 1388 1403 16 -0.7161466978663 2.005287913864 6.8265734020847 18.934624462415
5271	27371659 493 1345571 1358608 1388 1403 16 0.973 6.9143589350776 41.693524976798 174.99594972465
5272	27372152 509 1345572 1358608 1389 1403 15 30.952631369366 208.75570101564 1553.9170186354 212558.32932117
5273	27372661 345 1345572 1358608 1389 1403 15 20.2 20.2 303 6120.6
5274	27373006 509 1345572 1358608 1389 1403 15 30.608475284306 139.47657121583 1199.4732182561 114815.97545943
5275	27373515 345 1345572 1358608 1389 1403 15 20.2 23.4 341.4 7794.84
5276	27373860 474 1345579 1358608 1390 1403 14 3.8074971080809 16.845796199695 183.42101506082 2673.5542121022
5277	27374334 473 1345579 1358608 1390 1403 14 3.3111186419996 8.7706141889704 111.98628678868 931.37367318359
5278	27374807 441 1348118 1358608 1391 1403 13 30.175156158802 163.54309826806 1048.6153519883 109947.77879623
5279	27375248 299 1348118 1358608 1391 1403 13 20.2 20.2 262.6 5304.52
5280	27375547 455 1348118 1358608 1391 1403 13 -0.57761664083459 2.2376759130671 12.524583848135 25.098099764047
5281	27376002 431 1348118 1358608 1391 1403 13 0.973 9.167477907329 61.239131906513 381.65110702515
5282	27376433 466 1348118 1358608 1391 1403 13 -0.054097747113556 2.0775284721213 5.3653092137252 10.205873623555
5283	27376899 441 1348118 1358608 1391 1403 13 1.4757701042505 5.1903637997236 29.378978824206 87.730106100437
5284	27377340 405 1348122 1358608 1392 1403 12 31.17057785348 127.18212601206 877.4135396927 75894.081825806
5285	27377745 276 1348122 1358608 1392 1403 12 23.4 23.4 280.8 6570.72
5286	27378021 408 1348122 1358608 1392 1403 12 2.7364615502925 16.631739736394 140.63165979999 1943.0080903059
5287	27378429 380 1349517 1358608 1393 1403 11 0.014581557353971 2.047548847259 13.895278186102 25.662481161472
5288	27378809 374 1349517 1358608 1393 1403 11 2.3876390917296 9.9809787202905 57.054177362535 365.04308457847
5289	27379183 374 1349517 1358608 1393 1403 11 4.1019743000062 13.307129718568 100.74730247905 982.84412284023
5290	27379557 340 1350901 1358608 1394 1403 10 30.459879652632 112.43894096325 629.23478580984 47272.820443972
5291	27379897 230 1350901 1358608 1394 1403 10 20.2 20.2 202 4080.4
5292	27380127 340 1350901 1358608 1394 1403 10 30.246959658995 106.19239295822 604.61486494539 43097.535198401
5293	27380467 230 1350901 1358608 1394 1403 10 23.4 23.4 234 5475.6
5294	27380697 347 1350901 1358608 1394 1403 10 -0.48089863040152 2.1298533531791 9.2051554185615 19.58554931058
5295	27381044 310 1350901 1358608 1394 1403 10 0.973 8.6779771648174 38.688762518295 219.36854965027
5296	27381354 306 1350908 1358608 1395 1403 9 3.1511337038812 13.124144079058 86.928915740386 952.6617935719
5297	27381660 305 1350908 1358608 1395 1403 9 2.9712447869451 13.170458057534 81.438615743689 832.03948181079
5298	27381965 275 1353483 1358608 1396 1403 8 -1.0898069637947 2.056266132798 8.8832034113827 20.851965001559
5299	27382240 261 1353483 1358608 1396 1403 8 0.973 8.0191878736543 34.997179924893 200.22259554524
5300	27382501 276 1353483 1358608 1396 1403 8 -0.58679875042613 2.1176503253705 10.199213270589 19.146963780902
5301	27382777 261 1353483 1358608 1396 1403 8 0.973 7.2786262487901 36.40322106665 193.89118912842
5302	27383038 238 1353484 1358608 1397 1403 7 30.943987717279 74.295350951462 342.1918270256 18306.884639511
5303	27383276 161 1353484 1358608 1397 1403 7 20.2 20.2 141.4 2856.28
5304	27383437 237 1353484 1358608 1397 1403 7 30.784710361379 76.141324783176 341.19933597543 18306.477152338
5305	27383674 161 1353484 1358608 1397 1403 7 23.4 23.4 163.8 3832.92
5306	27383835 203 1353491 1358608 1398 1403 6 3.7009694337615 9.9695966601958 46.892400148927 400.38867184484
5307	27384038 203 1353491 1358608 1398 1403 6 3.773615654277 13.238927252431 50.513016376714 487.24371084949
5308	27384241 169 1356031 1358608 1399 1403 5 30.12593698701 48.351371736721 185.96863034876 7138.5506061469
5309	27384410 115 1356031 1358608 1399 1403 5 20.2 20.2 101 2040.2
5310	27384525 169 1356031 1358608 1399 1403 5 30.125243667297 48.268887028124 186.09877738925 7145.8676931347
5311	27384694 115 1356031 1358608 1399 1403 5 23.4 23.4 117 2737.8
5312	27384809 171 1356031 1358608 1399 1403 5 0.05440676412778 2.0574262323626 6.2686272264343 12.193602851277
5313	27384980 170 1356031 1358608 1399 1403 5 1.8131938461362 6.1890945643741 19.757757731077 93.247733127906
5314	27385150 169 1356031 1358608 1399 1403 5 1.7098975880234 2.1275340879685 9.4653115981538 18.04644416524
5315	27385319 170 1356031 1358608 1399 1403 5 3.8890456569347 8.7510704310154 29.854523960108 192.34811618428
5316	27385489 136 1356038 1358608 1400 1403 4 2.4753589711501 8.5774436589633 21.9688270262 141.54627683592
5317	27385625 136 1356038 1358608 1400 1403 4 2.5256733233214 8.5066450898617 21.709908990962 137.4164069193
5318	27385761 102 1358600 1358608 1401 1403 3 1.9181014974788 2.1291034588288 6.1020846878132 12.43472560398
5319	27385863 102 1358600 1358608 1401 1403 3 3.3607065487298 5.8298461413005 13.987654277391 68.293638177369
5320	27385965 101 1358600 1358608 1401 1403 3 1.8269648190145 2.2543673914648 5.9809717665403 12.028603228568
5321	27386066 101 1358600 1358608 1401 1403 3 3.3574492453437 6.198907793933 13.743413645377 67.230366295431
5322	27386167 68 1358601 1358608 1402 1403 2 30.464667573654 32.855756791222 63.320424364877 2007.5967246972
5323	27386235 46 1358601 1358608 1402 1403 2 20.2 20.2 40.4 816.08
5324	27386281 67 1358601 1358608 1402 1403 2 30.468896143626 32.77355367254 63.242449816166 2002.4594525379
5325	27386348 46 1358601 1358608 1402 1403 2 23.4 23.4 46.8 1095.12
5326	27386394 34 1358608 1358608 1403 1403 1 3.3445121003567 3.3445121003567 3.3445121003567 11.185761189432
5327	27386428 34 1358608 1358608 1403 1403 1 3.1005062044278 3.1005062044278 3.1005062044278 9.6131387236952

