file 21723936 1747667220                                        
version 2
run General-0-20250519-16:06:47-479546
attr configname General
attr datetime 20250519-16:06:47
attr experiment General
attr inifile omnetpp.ini
attr iterationvars ""
attr iterationvarsf ""
attr measurement ""
attr network RSUExampleScenario3
attr processid 479546
attr repetition 0
attr replication #0
attr resultdir results
attr runnumber 0
attr seedset 0
param *.playgroundSizeX 4000m
param *.playgroundSizeY 4000m
param *.playgroundSizeZ 50m
param *.annotations.draw true
param *.manager.updateInterval 1s
param *.manager.host "\"localhost\""
param *.manager.port 9999
param *.manager.autoShutdown true
param *.manager.launchConfig "xmldoc(\"lostest1.launchd.xml\")"
param *.connectionManager.sendDirect true
param *.connectionManager.maxInterfDist 2600m
param *.connectionManager.drawMaxIntfDist false
param *.**.nic.mac1609_4.useServiceChannel false
param *.node[*].nic.mac1609_4.txPower 20mW
param *.**.nic.mac1609_4.bitrate 6Mbps
param *.**.nic.phy80211p.minPowerLevel -110dBm
param *.**.nic.phy80211p.useNoiseFloor true
param *.**.nic.phy80211p.noiseFloor -98dBm
param *.**.nic.phy80211p.decider "xmldoc(\"config.xml\")"
param *.**.nic.phy80211p.analogueModels "xmldoc(\"config.xml\")"
param *.**.nic.phy80211p.usePropagationDelay true
param *.**.nic.phy80211p.antenna "xmldoc(\"antenna.xml\", \"/root/Antenna[@id='monopole']\")"
param *.node[*].nic.phy80211p.antennaOffsetY "0 m"
param *.node[*].nic.phy80211p.antennaOffsetZ "1.895 m"
param *.node[*].applType "\"MyVeinsApp\""
param *.node[*].appl.headerLength "80 bit"
param *.node[*].appl.sendBeacons true
param *.node[*].appl.dataOnSch false
param *.node[*].appl.beaconInterval 1s
param *.node[*].veinsmobility.x 0
param *.node[*].veinsmobility.y 0
param *.node[*].veinsmobility.z 0
param *.node[*].veinsmobility.setHostSpeed false
param *.manager.moduleType "\"hacker=org.car2x.veins.nodes.Car target=org.car2x.veins.nodes.Car *=org.car2x.veins.nodes.Car\""
param *.manager.moduleName "\"hacker=hacker target=target *=node\""
param *.target[*].applType "\"TargetApp\""
param *.target[*].appl.headerLength "80 bit"
param *.target[*].appl.sendBeacons false
param *.target[*].appl.dataOnSch false
param *.target[*].appl.beaconInterval 1s
param *.target[*].veinsmobility.x 0
param *.target[*].veinsmobility.y 0
param *.target[*].veinsmobility.z 0
param *.target[*].veinsmobility.setHostSpeed false
param *.target[*].nic.mac1609_4.txPower 20mW
param *.hacker[*].applType "\"AttackApp\""
param *.hacker[*].appl.headerLength "80 bit"
param *.hacker[*].appl.sendBeacons true
param *.hacker[*].appl.dataOnSch false
param *.hacker[*].veinsmobility.x 0
param *.hacker[*].veinsmobility.y 0
param *.hacker[*].veinsmobility.z 0
param *.hacker[*].veinsmobility.setHostSpeed false
param *.hacker[*].nic.mac1609_4.txPower 20mW
param *.hacker[*].appl.attack 0
param *.hacker[*].appl.attackInterval 0s

vector 0 RSUExampleScenario3.node[0].veinsmobility posx ETV
vector 1 RSUExampleScenario3.node[0].veinsmobility posy ETV
vector 2 RSUExampleScenario3.node[1].veinsmobility posx ETV
vector 3 RSUExampleScenario3.node[1].veinsmobility posy ETV
vector 4 RSUExampleScenario3.node[0].veinsmobility speed ETV
vector 5 RSUExampleScenario3.node[1].veinsmobility speed ETV
vector 6 RSUExampleScenario3.node[0].veinsmobility acceleration ETV
vector 7 RSUExampleScenario3.node[0].veinsmobility co2emission ETV
vector 8 RSUExampleScenario3.node[1].veinsmobility acceleration ETV
vector 9 RSUExampleScenario3.node[1].veinsmobility co2emission ETV
vector 10 RSUExampleScenario3.node[2].veinsmobility posx ETV
vector 11 RSUExampleScenario3.node[2].veinsmobility posy ETV
vector 12 RSUExampleScenario3.node[3].veinsmobility posx ETV
vector 13 RSUExampleScenario3.node[3].veinsmobility posy ETV
vector 14 RSUExampleScenario3.node[2].veinsmobility speed ETV
vector 15 RSUExampleScenario3.node[3].veinsmobility speed ETV
vector 16 RSUExampleScenario3.node[2].veinsmobility acceleration ETV
vector 17 RSUExampleScenario3.node[2].veinsmobility co2emission ETV
vector 18 RSUExampleScenario3.node[3].veinsmobility acceleration ETV
vector 19 RSUExampleScenario3.node[3].veinsmobility co2emission ETV
vector 20 RSUExampleScenario3.node[4].veinsmobility posx ETV
vector 21 RSUExampleScenario3.node[4].veinsmobility posy ETV
vector 22 RSUExampleScenario3.node[5].veinsmobility posx ETV
vector 23 RSUExampleScenario3.node[5].veinsmobility posy ETV
vector 24 RSUExampleScenario3.node[4].veinsmobility speed ETV
vector 25 RSUExampleScenario3.node[5].veinsmobility speed ETV
vector 26 RSUExampleScenario3.node[4].veinsmobility acceleration ETV
vector 27 RSUExampleScenario3.node[4].veinsmobility co2emission ETV
vector 28 RSUExampleScenario3.node[5].veinsmobility acceleration ETV
vector 29 RSUExampleScenario3.node[5].veinsmobility co2emission ETV
vector 30 RSUExampleScenario3.node[6].veinsmobility posx ETV
vector 31 RSUExampleScenario3.node[6].veinsmobility posy ETV
vector 32 RSUExampleScenario3.node[7].veinsmobility posx ETV
vector 33 RSUExampleScenario3.node[7].veinsmobility posy ETV
vector 34 RSUExampleScenario3.node[6].veinsmobility speed ETV
vector 35 RSUExampleScenario3.node[7].veinsmobility speed ETV
vector 36 RSUExampleScenario3.node[6].veinsmobility acceleration ETV
vector 37 RSUExampleScenario3.node[6].veinsmobility co2emission ETV
vector 38 RSUExampleScenario3.node[7].veinsmobility acceleration ETV
vector 39 RSUExampleScenario3.node[7].veinsmobility co2emission ETV
vector 40 RSUExampleScenario3.node[8].veinsmobility posx ETV
vector 41 RSUExampleScenario3.node[8].veinsmobility posy ETV
vector 42 RSUExampleScenario3.node[9].veinsmobility posx ETV
vector 43 RSUExampleScenario3.node[9].veinsmobility posy ETV
vector 44 RSUExampleScenario3.node[8].veinsmobility speed ETV
vector 45 RSUExampleScenario3.node[9].veinsmobility speed ETV
vector 46 RSUExampleScenario3.node[8].veinsmobility acceleration ETV
vector 47 RSUExampleScenario3.node[8].veinsmobility co2emission ETV
vector 48 RSUExampleScenario3.node[9].veinsmobility acceleration ETV
vector 49 RSUExampleScenario3.node[9].veinsmobility co2emission ETV
vector 50 RSUExampleScenario3.node[10].veinsmobility posx ETV
vector 51 RSUExampleScenario3.node[10].veinsmobility posy ETV
vector 52 RSUExampleScenario3.node[11].veinsmobility posx ETV
vector 53 RSUExampleScenario3.node[11].veinsmobility posy ETV
vector 54 RSUExampleScenario3.node[10].veinsmobility speed ETV
vector 55 RSUExampleScenario3.node[11].veinsmobility speed ETV
vector 56 RSUExampleScenario3.node[10].veinsmobility acceleration ETV
vector 57 RSUExampleScenario3.node[10].veinsmobility co2emission ETV
vector 58 RSUExampleScenario3.node[11].veinsmobility acceleration ETV
vector 59 RSUExampleScenario3.node[11].veinsmobility co2emission ETV
vector 60 RSUExampleScenario3.node[12].veinsmobility posx ETV
vector 61 RSUExampleScenario3.node[12].veinsmobility posy ETV
vector 62 RSUExampleScenario3.node[13].veinsmobility posx ETV
vector 63 RSUExampleScenario3.node[13].veinsmobility posy ETV
vector 64 RSUExampleScenario3.node[12].veinsmobility speed ETV
vector 65 RSUExampleScenario3.node[13].veinsmobility speed ETV
vector 66 RSUExampleScenario3.node[12].veinsmobility acceleration ETV
vector 67 RSUExampleScenario3.node[12].veinsmobility co2emission ETV
vector 68 RSUExampleScenario3.node[13].veinsmobility acceleration ETV
vector 69 RSUExampleScenario3.node[13].veinsmobility co2emission ETV
vector 70 RSUExampleScenario3.node[14].veinsmobility posx ETV
vector 71 RSUExampleScenario3.node[14].veinsmobility posy ETV
vector 72 RSUExampleScenario3.node[15].veinsmobility posx ETV
vector 73 RSUExampleScenario3.node[15].veinsmobility posy ETV
vector 74 RSUExampleScenario3.node[14].veinsmobility speed ETV
vector 75 RSUExampleScenario3.node[15].veinsmobility speed ETV
vector 76 RSUExampleScenario3.node[14].veinsmobility acceleration ETV
vector 77 RSUExampleScenario3.node[14].veinsmobility co2emission ETV
vector 78 RSUExampleScenario3.node[15].veinsmobility acceleration ETV
vector 79 RSUExampleScenario3.node[15].veinsmobility co2emission ETV
vector 80 RSUExampleScenario3.node[16].veinsmobility posx ETV
vector 81 RSUExampleScenario3.node[16].veinsmobility posy ETV
vector 82 RSUExampleScenario3.node[17].veinsmobility posx ETV
vector 83 RSUExampleScenario3.node[17].veinsmobility posy ETV
vector 84 RSUExampleScenario3.node[16].veinsmobility speed ETV
vector 85 RSUExampleScenario3.node[17].veinsmobility speed ETV
vector 86 RSUExampleScenario3.node[16].veinsmobility acceleration ETV
vector 87 RSUExampleScenario3.node[16].veinsmobility co2emission ETV
vector 88 RSUExampleScenario3.node[17].veinsmobility acceleration ETV
vector 89 RSUExampleScenario3.node[17].veinsmobility co2emission ETV
vector 90 RSUExampleScenario3.node[18].veinsmobility posx ETV
vector 91 RSUExampleScenario3.node[18].veinsmobility posy ETV
vector 92 RSUExampleScenario3.node[19].veinsmobility posx ETV
vector 93 RSUExampleScenario3.node[19].veinsmobility posy ETV
vector 94 RSUExampleScenario3.node[18].veinsmobility speed ETV
vector 95 RSUExampleScenario3.node[19].veinsmobility speed ETV
vector 96 RSUExampleScenario3.node[18].veinsmobility acceleration ETV
vector 97 RSUExampleScenario3.node[18].veinsmobility co2emission ETV
vector 98 RSUExampleScenario3.node[19].veinsmobility acceleration ETV
vector 99 RSUExampleScenario3.node[19].veinsmobility co2emission ETV
vector 100 RSUExampleScenario3.node[20].veinsmobility posx ETV
vector 101 RSUExampleScenario3.node[20].veinsmobility posy ETV
vector 102 RSUExampleScenario3.node[21].veinsmobility posx ETV
vector 103 RSUExampleScenario3.node[21].veinsmobility posy ETV
vector 104 RSUExampleScenario3.node[20].veinsmobility speed ETV
vector 105 RSUExampleScenario3.node[21].veinsmobility speed ETV
vector 106 RSUExampleScenario3.node[20].veinsmobility acceleration ETV
vector 107 RSUExampleScenario3.node[20].veinsmobility co2emission ETV
vector 108 RSUExampleScenario3.node[21].veinsmobility acceleration ETV
vector 109 RSUExampleScenario3.node[21].veinsmobility co2emission ETV
vector 110 RSUExampleScenario3.node[22].veinsmobility posx ETV
vector 111 RSUExampleScenario3.node[22].veinsmobility posy ETV
vector 112 RSUExampleScenario3.node[23].veinsmobility posx ETV
vector 113 RSUExampleScenario3.node[23].veinsmobility posy ETV
vector 114 RSUExampleScenario3.node[22].veinsmobility speed ETV
vector 115 RSUExampleScenario3.node[23].veinsmobility speed ETV
vector 116 RSUExampleScenario3.node[22].veinsmobility acceleration ETV
vector 117 RSUExampleScenario3.node[22].veinsmobility co2emission ETV
vector 118 RSUExampleScenario3.node[23].veinsmobility acceleration ETV
vector 119 RSUExampleScenario3.node[23].veinsmobility co2emission ETV
vector 120 RSUExampleScenario3.node[24].veinsmobility posx ETV
vector 121 RSUExampleScenario3.node[24].veinsmobility posy ETV
vector 122 RSUExampleScenario3.node[25].veinsmobility posx ETV
vector 123 RSUExampleScenario3.node[25].veinsmobility posy ETV
vector 124 RSUExampleScenario3.node[24].veinsmobility speed ETV
vector 125 RSUExampleScenario3.node[25].veinsmobility speed ETV
vector 126 RSUExampleScenario3.node[24].veinsmobility acceleration ETV
vector 127 RSUExampleScenario3.node[24].veinsmobility co2emission ETV
vector 128 RSUExampleScenario3.node[25].veinsmobility acceleration ETV
vector 129 RSUExampleScenario3.node[25].veinsmobility co2emission ETV
vector 130 RSUExampleScenario3.node[26].veinsmobility posx ETV
vector 131 RSUExampleScenario3.node[26].veinsmobility posy ETV
vector 132 RSUExampleScenario3.node[27].veinsmobility posx ETV
vector 133 RSUExampleScenario3.node[27].veinsmobility posy ETV
vector 134 RSUExampleScenario3.node[26].veinsmobility speed ETV
vector 135 RSUExampleScenario3.node[27].veinsmobility speed ETV
vector 136 RSUExampleScenario3.node[26].veinsmobility acceleration ETV
vector 137 RSUExampleScenario3.node[26].veinsmobility co2emission ETV
vector 138 RSUExampleScenario3.node[27].veinsmobility acceleration ETV
vector 139 RSUExampleScenario3.node[27].veinsmobility co2emission ETV
vector 140 RSUExampleScenario3.node[28].veinsmobility posx ETV
vector 141 RSUExampleScenario3.node[28].veinsmobility posy ETV
vector 142 RSUExampleScenario3.node[29].veinsmobility posx ETV
vector 143 RSUExampleScenario3.node[29].veinsmobility posy ETV
vector 144 RSUExampleScenario3.node[28].veinsmobility speed ETV
vector 145 RSUExampleScenario3.node[29].veinsmobility speed ETV
vector 146 RSUExampleScenario3.node[28].veinsmobility acceleration ETV
vector 147 RSUExampleScenario3.node[28].veinsmobility co2emission ETV
vector 148 RSUExampleScenario3.node[29].veinsmobility acceleration ETV
vector 149 RSUExampleScenario3.node[29].veinsmobility co2emission ETV
vector 150 RSUExampleScenario3.node[30].veinsmobility posx ETV
vector 151 RSUExampleScenario3.node[30].veinsmobility posy ETV
vector 152 RSUExampleScenario3.node[31].veinsmobility posx ETV
vector 153 RSUExampleScenario3.node[31].veinsmobility posy ETV
vector 154 RSUExampleScenario3.node[30].veinsmobility speed ETV
vector 155 RSUExampleScenario3.node[31].veinsmobility speed ETV
vector 156 RSUExampleScenario3.node[30].veinsmobility acceleration ETV
vector 157 RSUExampleScenario3.node[30].veinsmobility co2emission ETV
vector 158 RSUExampleScenario3.node[31].veinsmobility acceleration ETV
vector 159 RSUExampleScenario3.node[31].veinsmobility co2emission ETV
29	13289 2597 318 5731 17 115 99 0.973 13.461510971083 361.44406905798 1803.8546453495
28	15886 2868 318 5731 17 115 99 -1.4228954254419 2.1749894398008 18.355952224462 51.938410881847
25	18754 2679 181 5731 16 115 100 3.1875806307177 21.549021285217 2002.6068997665 41452.808014282
23	21433 1604 174 5731 15 115 101 20.2 23.4 2193.8 47909
22	23037 2702 174 5731 15 115 101 30.473678195039 2023.5277007647 97020.393928349 130720826.61304
vector 160 RSUExampleScenario3.node[32].veinsmobility posx ETV
vector 161 RSUExampleScenario3.node[32].veinsmobility posy ETV
vector 162 RSUExampleScenario3.node[33].veinsmobility posx ETV
vector 163 RSUExampleScenario3.node[33].veinsmobility posy ETV
vector 164 RSUExampleScenario3.node[32].veinsmobility speed ETV
vector 165 RSUExampleScenario3.node[33].veinsmobility speed ETV
vector 166 RSUExampleScenario3.node[32].veinsmobility acceleration ETV
vector 167 RSUExampleScenario3.node[32].veinsmobility co2emission ETV
vector 168 RSUExampleScenario3.node[33].veinsmobility acceleration ETV
vector 169 RSUExampleScenario3.node[33].veinsmobility co2emission ETV
vector 170 RSUExampleScenario3.node[34].veinsmobility posx ETV
vector 171 RSUExampleScenario3.node[34].veinsmobility posy ETV
vector 172 RSUExampleScenario3.node[35].veinsmobility posx ETV
vector 173 RSUExampleScenario3.node[35].veinsmobility posy ETV
vector 174 RSUExampleScenario3.node[34].veinsmobility speed ETV
vector 175 RSUExampleScenario3.node[35].veinsmobility speed ETV
vector 176 RSUExampleScenario3.node[34].veinsmobility acceleration ETV
vector 177 RSUExampleScenario3.node[34].veinsmobility co2emission ETV
vector 178 RSUExampleScenario3.node[35].veinsmobility acceleration ETV
vector 179 RSUExampleScenario3.node[35].veinsmobility co2emission ETV
vector 180 RSUExampleScenario3.node[36].veinsmobility posx ETV
vector 181 RSUExampleScenario3.node[36].veinsmobility posy ETV
vector 182 RSUExampleScenario3.node[37].veinsmobility posx ETV
vector 183 RSUExampleScenario3.node[37].veinsmobility posy ETV
vector 184 RSUExampleScenario3.node[36].veinsmobility speed ETV
vector 185 RSUExampleScenario3.node[37].veinsmobility speed ETV
vector 186 RSUExampleScenario3.node[36].veinsmobility acceleration ETV
vector 187 RSUExampleScenario3.node[36].veinsmobility co2emission ETV
vector 188 RSUExampleScenario3.node[37].veinsmobility acceleration ETV
vector 189 RSUExampleScenario3.node[37].veinsmobility co2emission ETV
vector 190 RSUExampleScenario3.node[38].veinsmobility posx ETV
vector 191 RSUExampleScenario3.node[38].veinsmobility posy ETV
vector 192 RSUExampleScenario3.node[39].veinsmobility posx ETV
vector 193 RSUExampleScenario3.node[39].veinsmobility posy ETV
vector 194 RSUExampleScenario3.node[38].veinsmobility speed ETV
vector 195 RSUExampleScenario3.node[39].veinsmobility speed ETV
vector 196 RSUExampleScenario3.node[38].veinsmobility acceleration ETV
vector 197 RSUExampleScenario3.node[38].veinsmobility co2emission ETV
vector 198 RSUExampleScenario3.node[39].veinsmobility acceleration ETV
vector 199 RSUExampleScenario3.node[39].veinsmobility co2emission ETV
49	28387 2993 720 8649 31 141 111 0.80741222627562 11.191570133107 329.98026864047 1335.1987773909
48	31380 3257 720 8649 31 141 111 -0.48414794275081 2.1491994664096 16.872359759096 38.461460086688
45	34637 3042 499 8649 30 141 112 2.4186491995588 19.399542336926 1984.2611903634 36095.713878521
43	37679 1836 492 8649 29 141 113 23.4 23.4 2644.2 61874.28
42	39515 3067 492 8649 29 141 113 30.124743885909 2005.7169535088 109684.22554306 145058279.42188
7	42582 3602 62 8650 3 142 140 1.639421053476 8.9332065892335 313.78407237606 814.93390825089
6	46184 3963 62 8650 3 142 140 -0.12461645188509 2.0685075858422 10.240243269134 20.06745036917
4	50147 3632 9 8650 2 142 141 4.0758362758249 14.412814117988 1991.166555181 28350.777155782
1	53779 2111 2 8650 1 142 142 20.2 20.2 2868.4 57941.68
0	55890 3654 2 8650 1 142 142 31.18869740985 2016.8330257217 142847.99935978 192635482.75451
17	59544 3487 169 8651 10 143 134 0.973 10.322309912467 340.0510987535 1178.1609062821
16	63031 3916 169 8651 10 143 134 -1.4309898844096 2.1431082365219 13.43490630602 45.582020711339
14	66947 3637 74 8651 9 143 135 3.6534798337513 17.09125942168 1998.0766969258 31309.602066182
11	70584 2181 67 8651 8 143 136 20.2 23.4 2852.8 60097.6
10	72765 3659 67 8651 8 143 136 30.776154789895 2021.4345550835 126625.58389078 169525414.53217
vector 200 RSUExampleScenario3.node[40].veinsmobility posx ETV
vector 201 RSUExampleScenario3.node[40].veinsmobility posy ETV
vector 202 RSUExampleScenario3.node[41].veinsmobility posx ETV
vector 203 RSUExampleScenario3.node[41].veinsmobility posy ETV
vector 204 RSUExampleScenario3.node[40].veinsmobility speed ETV
vector 205 RSUExampleScenario3.node[41].veinsmobility speed ETV
39	76804 3336 487 8660 24 146 123 1.842273784114 9.5781653712336 316.56977549134 971.28483222888
38	80140 3630 487 8660 24 146 123 -0.11935958929593 2.1593627373409 13.519430721251 25.915766311302
35	83770 3360 330 8660 23 146 124 2.940235865474 16.576814799403 1992.7814783673 32529.10531067
33	87130 2026 323 8660 22 146 125 20.2 23.4 2713.8 59236.68
32	89156 3388 323 8660 22 146 125 30.254245864231 2015.6504047884 124200.71635882 167380748.42213
vector 206 RSUExampleScenario3.node[40].veinsmobility acceleration ETV
vector 207 RSUExampleScenario3.node[40].veinsmobility co2emission ETV
vector 208 RSUExampleScenario3.node[41].veinsmobility acceleration ETV
vector 209 RSUExampleScenario3.node[41].veinsmobility co2emission ETV
37	92826 3354 487 9420 24 148 125 0.973 9.840639692946 332.30615258062 1134.7892267539
36	96180 3675 487 9420 24 148 125 -1.7856721511669 2.2939637562865 13.580816554422 44.145611725251
34	99855 3414 330 9420 23 148 126 2.8319868129561 16.419056352821 1985.6553124944 31828.447302068
31	103269 2060 323 9420 22 148 127 20.2 23.4 2735 59215.64
30	105329 3446 323 9420 22 148 127 30.248723387942 2009.9269274548 125055.26425614 167632067.1255
vector 210 RSUExampleScenario3.node[42].veinsmobility posx ETV
vector 211 RSUExampleScenario3.node[42].veinsmobility posy ETV
vector 212 RSUExampleScenario3.node[43].veinsmobility posx ETV
vector 213 RSUExampleScenario3.node[43].veinsmobility posy ETV
vector 214 RSUExampleScenario3.node[42].veinsmobility speed ETV
vector 215 RSUExampleScenario3.node[43].veinsmobility speed ETV
77	109155 2718 1625 9431 53 153 101 0.973 12.790283164314 366.246387906 1885.6078485936
76	111873 2969 1625 9431 53 153 101 -1.6316731756146 2.05629935754 19.472306778598 52.520159952802
74	114842 2800 1324 9431 52 153 102 3.2963758494302 22.769481845995 1998.7053211621 40662.785883543
71	117642 1702 1317 9431 51 153 103 20.2 23.4 2378.2 55003.48
70	119344 2826 1317 9431 51 153 103 30.465788395342 2018.7288195985 97548.264987722 128730040.55922
vector 216 RSUExampleScenario3.node[42].veinsmobility acceleration ETV
vector 217 RSUExampleScenario3.node[42].veinsmobility co2emission ETV
vector 218 RSUExampleScenario3.node[43].veinsmobility acceleration ETV
vector 219 RSUExampleScenario3.node[43].veinsmobility co2emission ETV
87	122452 2525 1974 10186 60 154 95 -1.2060316167977 20.69338069708 398.2389070912 3179.1222822745
86	124977 2772 1974 10186 60 154 95 -1.6020332177613 2.1049569655792 21.03910101384 72.332288491535
84	127749 2629 1637 10186 59 154 96 2.8581947380097 31.423648599068 1991.8092848626 43268.73840576
81	130378 1608 1630 10186 58 154 97 20.2 23.4 2241 51857.64
80	131986 2663 1630 10186 58 154 97 30.247700657883 2011.3148153838 94914.964126074 126460079.35363
79	134649 2732 1625 10187 53 155 103 0.973 12.729355907288 361.59503493422 1985.7837080461
78	137381 3038 1625 10187 53 155 103 -1.1385341953266 2.148568786236 17.898611187116 58.812750293934
75	140419 2854 1324 10187 52 155 104 3.3671864216823 21.298382838779 1986.3069510801 39041.164208714
73	143273 1738 1317 10187 51 155 105 20.2 23.4 2393 54703.4
72	145011 2872 1317 10187 51 155 105 30.474416324681 2007.6427660675 103423.19440476 139168771.27457
27	147883 3797 318 10189 17 157 141 0.973 8.2681584504446 327.18343946122 934.55033402998
26	151680 4181 318 10189 17 157 141 -1.4628780264459 2.0602474138397 11.2311364528 33.433699555755
24	155861 3851 181 10189 16 157 142 3.2252973315125 14.504077894434 1998.971370365 28464.924287416
21	159712 2322 174 10189 15 157 143 20.2 23.4 2943 60721.56
20	162034 3879 174 10189 15 157 143 30.466903026305 2023.3795924637 143089.85666841 193363341.96528
vector 220 RSUExampleScenario3.node[44].veinsmobility posx ETV
vector 221 RSUExampleScenario3.node[44].veinsmobility posy ETV
vector 222 RSUExampleScenario3.node[45].veinsmobility posx ETV
vector 223 RSUExampleScenario3.node[45].veinsmobility posy ETV
67	166165 3071 1312 10191 46 159 114 0.973 11.379551828077 335.26090285769 1391.9124407775
66	169236 3385 1312 10191 46 159 114 -1.7981450490219 2.1074295639154 14.520257318101 44.660618477138
64	172621 3162 1008 10191 45 159 115 3.7070186377598 18.25790817746 1990.2545555985 35087.315401817
61	175783 1922 1001 10191 44 159 116 20.2 23.4 2506.4 54448.16
60	177705 3186 1001 10191 44 159 116 30.772623441335 2013.7781310327 113651.96007554 152151527.5661
vector 224 RSUExampleScenario3.node[44].veinsmobility speed ETV
vector 225 RSUExampleScenario3.node[45].veinsmobility speed ETV
vector 226 RSUExampleScenario3.node[44].veinsmobility acceleration ETV
vector 227 RSUExampleScenario3.node[44].veinsmobility co2emission ETV
vector 228 RSUExampleScenario3.node[45].veinsmobility acceleration ETV
vector 229 RSUExampleScenario3.node[45].veinsmobility co2emission ETV
vector 230 RSUExampleScenario3.node[46].veinsmobility posx ETV
vector 231 RSUExampleScenario3.node[46].veinsmobility posy ETV
vector 232 RSUExampleScenario3.node[47].veinsmobility posx ETV
vector 233 RSUExampleScenario3.node[47].veinsmobility posy ETV
vector 234 RSUExampleScenario3.node[46].veinsmobility speed ETV
vector 235 RSUExampleScenario3.node[47].veinsmobility speed ETV
vector 236 RSUExampleScenario3.node[46].veinsmobility acceleration ETV
vector 237 RSUExampleScenario3.node[46].veinsmobility co2emission ETV
vector 238 RSUExampleScenario3.node[47].veinsmobility acceleration ETV
vector 239 RSUExampleScenario3.node[47].veinsmobility co2emission ETV
vector 240 RSUExampleScenario3.node[48].veinsmobility posx ETV
vector 241 RSUExampleScenario3.node[48].veinsmobility posy ETV
vector 242 RSUExampleScenario3.node[49].veinsmobility posx ETV
vector 243 RSUExampleScenario3.node[49].veinsmobility posy ETV
vector 244 RSUExampleScenario3.node[48].veinsmobility speed ETV
vector 245 RSUExampleScenario3.node[49].veinsmobility speed ETV
vector 246 RSUExampleScenario3.node[48].veinsmobility acceleration ETV
vector 247 RSUExampleScenario3.node[48].veinsmobility co2emission ETV
vector 248 RSUExampleScenario3.node[49].veinsmobility acceleration ETV
vector 249 RSUExampleScenario3.node[49].veinsmobility co2emission ETV
59	182625 3745 996 12385 39 177 139 0.973 8.2748599160058 322.61613076973 917.76016101158
58	186370 4173 996 12385 39 177 139 -0.89022604051241 2.1386228664569 11.110107440406 27.62223013977
55	190543 3857 733 12385 38 177 140 3.9813453312037 15.162680900803 1985.6415029076 28701.297300631
53	194400 2352 726 12385 37 177 141 20.2 23.4 3181 72043.72
52	196752 3887 726 12385 37 177 141 31.165836094458 2010.3317568341 141329.40935027 188077702.03849
57	200639 3786 996 12386 39 178 140 0.973 8.5133623485405 327.57915385442 992.24843834103
56	204425 4200 996 12386 39 178 140 -1.3605092872315 2.1034818797908 10.427952884045 36.248724970761
54	208625 3894 733 12386 38 178 141 4.0645482806349 14.544307119894 1986.7831832955 28284.253778981
51	212519 2370 726 12386 37 178 142 20.2 23.4 3018.8 64499.12
50	214889 3917 726 12386 37 178 142 31.17109215267 2011.8704267912 141483.7803336 189982697.49273
97	218806 2981 2401 12387 67 179 113 0.973 19.229253991755 401.82878816804 3140.1679915434
96	221787 3350 2401 12387 67 179 113 -1.8543504450023 2.1067118587485 14.737342429618 91.577136203798
94	225137 3164 1986 12387 66 179 114 2.3902655561592 32.167913236931 1997.101332655 37322.298470201
91	228301 1946 1979 12387 65 179 115 20.2 23.4 2643 60876.6
90	230247 3205 1979 12387 65 179 115 30.125930738641 2018.7630436591 114914.02703927 159843436.63385
109	233452 2816 2823 12388 75 180 106 0.56240431994225 19.409396571057 402.16958523612 3658.9209959714
108	236268 3243 2823 12388 75 180 106 -1.6623492677249 2.0769932128559 12.219496396645 98.034702970238
105	239511 3092 2414 12388 74 180 107 4.065036388708 31.335296297503 1995.4737671396 39544.11287033
103	242603 1944 2407 12388 73 180 108 20.2 23.4 2434.4 55090.4
102	244547 3117 2407 12388 73 180 108 31.194914049695 2019.4233359582 112703.25116506 158535582.26537
99	247664 3113 2401 12388 67 180 114 0.973 10.295699491817 331.30757306291 1276.524881576
98	250777 3433 2401 12388 67 180 114 -1.4044151068323 2.0865737500368 15.368237923642 40.822459365912
95	254210 3198 1986 12388 66 180 115 2.532569135188 18.025921006524 1987.2792932017 35045.073523109
93	257408 1964 1979 12388 65 180 116 20.2 23.4 2647.2 60587.04
92	259372 3231 1979 12388 65 180 116 30.124902303066 2009.1668438157 114545.38257491 154222271.24844
vector 250 RSUExampleScenario3.node[50].veinsmobility posx ETV
vector 251 RSUExampleScenario3.node[50].veinsmobility posy ETV
vector 252 RSUExampleScenario3.node[51].veinsmobility posx ETV
vector 253 RSUExampleScenario3.node[51].veinsmobility posy ETV
vector 254 RSUExampleScenario3.node[50].veinsmobility speed ETV
vector 255 RSUExampleScenario3.node[51].veinsmobility speed ETV
129	262983 2534 3869 12396 89 182 94 0.54848508015346 17.908945560346 397.67361729651 3487.4685251959
128	265517 2901 3869 12396 89 182 94 -1.2916158959657 2.1075824592146 16.678442408297 85.828504906017
125	268418 2759 3342 12396 88 182 95 3.3743614253024 28.613053871025 1999.4273848718 44659.397776012
123	271177 1744 3335 12396 87 182 96 23.4 23.4 2246.4 52565.76
122	272921 2790 3335 12396 87 182 96 30.466580131526 2020.9430882975 98384.914239946 137504573.36731
vector 256 RSUExampleScenario3.node[50].veinsmobility acceleration ETV
vector 257 RSUExampleScenario3.node[50].veinsmobility co2emission ETV
vector 258 RSUExampleScenario3.node[51].veinsmobility acceleration ETV
vector 259 RSUExampleScenario3.node[51].veinsmobility co2emission ETV
139	275993 2342 4450 13122 96 183 88 0.77603700688848 21.178127285984 479.86982634181 5419.5314967373
138	278335 2693 4450 13122 96 183 88 -1.8976576862928 2.3320192263974 19.570343105726 125.30941724142
135	281028 2595 3881 13122 95 183 89 2.774650840284 32.18319482941 1991.5364845939 48899.021851245
133	283623 1644 3874 13122 94 183 90 23.4 23.4 2106 49280.4
132	285267 2626 3874 13122 94 183 90 30.251077959386 2011.6854370123 86228.762482543 114803562.64459
vector 260 RSUExampleScenario3.node[52].veinsmobility posx ETV
vector 261 RSUExampleScenario3.node[52].veinsmobility posy ETV
vector 262 RSUExampleScenario3.node[53].veinsmobility posx ETV
vector 263 RSUExampleScenario3.node[53].veinsmobility posy ETV
107	288145 3172 2823 13127 75 188 114 0.973 11.126740303442 372.25784392229 1829.700080129
106	291317 3532 2823 13127 75 188 114 -1.6417782559804 2.1374791592755 14.8496850761 74.856574488994
104	294849 3331 2414 13127 74 188 115 4.187969563655 19.050999936259 1996.3909418377 35813.169552899
101	298180 2096 2407 13127 73 188 116 20.2 23.4 2532 55564.32
100	300276 3350 2407 13127 73 188 116 31.203006199945 2020.5980181818 112832.63912734 151022815.24819
vector 264 RSUExampleScenario3.node[52].veinsmobility speed ETV
vector 265 RSUExampleScenario3.node[53].veinsmobility speed ETV
vector 266 RSUExampleScenario3.node[52].veinsmobility acceleration ETV
vector 267 RSUExampleScenario3.node[52].veinsmobility co2emission ETV
vector 268 RSUExampleScenario3.node[53].veinsmobility acceleration ETV
vector 269 RSUExampleScenario3.node[53].veinsmobility co2emission ETV
137	304036 2762 4450 13846 96 192 97 0.973 11.775428339004 359.40932912995 1874.9687629138
136	306798 3034 4450 13846 96 192 97 -1.1216492318512 2.2894314507488 19.133309091624 48.781391233693
134	309832 2870 3881 13846 95 192 98 2.6503207467334 21.798628487632 1991.1855741644 41770.083268054
131	312702 1815 3874 13846 94 192 99 20.2 23.4 2239.8 50859.96
130	314517 2891 3874 13846 94 192 99 30.25207444604 2011.6867008991 95711.39868687 128175869.96249
vector 270 RSUExampleScenario3.node[54].veinsmobility posx ETV
vector 271 RSUExampleScenario3.node[54].veinsmobility posy ETV
vector 272 RSUExampleScenario3.node[55].veinsmobility posx ETV
vector 273 RSUExampleScenario3.node[55].veinsmobility posy ETV
vector 274 RSUExampleScenario3.node[54].veinsmobility speed ETV
vector 275 RSUExampleScenario3.node[55].veinsmobility speed ETV
vector 276 RSUExampleScenario3.node[54].veinsmobility acceleration ETV
vector 277 RSUExampleScenario3.node[54].veinsmobility co2emission ETV
vector 278 RSUExampleScenario3.node[55].veinsmobility acceleration ETV
vector 279 RSUExampleScenario3.node[55].veinsmobility co2emission ETV
159	318070 2521 5727 14520 111 200 90 0.973 21.66461086984 512.87690793078 5462.6646191952
158	320591 2790 5727 14520 111 200 90 -2.0417436003445 2.1824371036189 28.030717300129 109.17820450816
155	323381 2676 5082 14520 110 200 91 4.1509322384187 32.181649538547 1991.7018824647 49407.255431529
153	326057 1703 5075 14520 109 200 92 23.4 23.4 2152.8 50375.52
152	327760 2702 5075 14520 109 200 92 31.173163184317 2009.5390340157 86339.824174768 108684186.26506
vector 280 RSUExampleScenario3.node[56].veinsmobility posx ETV
vector 281 RSUExampleScenario3.node[56].veinsmobility posy ETV
vector 282 RSUExampleScenario3.node[57].veinsmobility posx ETV
vector 283 RSUExampleScenario3.node[57].veinsmobility posy ETV
vector 284 RSUExampleScenario3.node[56].veinsmobility speed ETV
vector 285 RSUExampleScenario3.node[57].veinsmobility speed ETV
117	330842 3514 3330 14529 82 203 122 0.973 10.090588854875 334.43268593005 1226.1418159133
116	334356 3844 3330 14529 82 203 122 -1.870391011491 2.0059597123368 13.200023343744 42.270702509181
114	338200 3583 2835 14529 81 203 123 3.5813565075353 16.879268558174 1997.2662986823 32941.218694539
111	341783 2262 2828 14529 80 203 124 20.2 23.4 2642.4 56596.32
110	344045 3606 2828 14529 80 203 124 30.777184655905 2020.7410511451 124341.84807184 168869075.79552
19	347651 5331 169 14529 10 203 194 1.4080532904111 5.5855021136078 343.31813664446 649.45390675771
18	352982 5824 169 14529 10 203 194 -0.11971493112622 1.9925660682982 6.6459773477693 12.454130771231
15	358806 5364 74 14529 9 203 195 3.6119215844089 10.367498506955 1992.9685613108 20444.726385496
13	364170 3251 67 14529 8 203 196 20.2 23.4 4029.6 83045.28
12	367421 5385 67 14529 8 203 196 30.771638867479 2020.4220430197 199187.62322913 268919647.87838
vector 286 RSUExampleScenario3.node[56].veinsmobility acceleration ETV
vector 287 RSUExampleScenario3.node[56].veinsmobility co2emission ETV
vector 288 RSUExampleScenario3.node[57].veinsmobility acceleration ETV
vector 289 RSUExampleScenario3.node[57].veinsmobility co2emission ETV
vector 290 RSUExampleScenario3.node[58].veinsmobility posx ETV
vector 291 RSUExampleScenario3.node[58].veinsmobility posy ETV
vector 292 RSUExampleScenario3.node[59].veinsmobility posx ETV
vector 293 RSUExampleScenario3.node[59].veinsmobility posy ETV
vector 294 RSUExampleScenario3.node[58].veinsmobility speed ETV
vector 295 RSUExampleScenario3.node[59].veinsmobility speed ETV
vector 296 RSUExampleScenario3.node[58].veinsmobility acceleration ETV
vector 297 RSUExampleScenario3.node[58].veinsmobility co2emission ETV
vector 298 RSUExampleScenario3.node[59].veinsmobility acceleration ETV
vector 299 RSUExampleScenario3.node[59].veinsmobility co2emission ETV
vector 300 RSUExampleScenario3.node[60].veinsmobility posx ETV
vector 301 RSUExampleScenario3.node[60].veinsmobility posy ETV
vector 302 RSUExampleScenario3.node[61].veinsmobility posx ETV
vector 303 RSUExampleScenario3.node[61].veinsmobility posy ETV
vector 304 RSUExampleScenario3.node[60].veinsmobility speed ETV
vector 305 RSUExampleScenario3.node[61].veinsmobility speed ETV
vector 306 RSUExampleScenario3.node[60].veinsmobility acceleration ETV
vector 307 RSUExampleScenario3.node[60].veinsmobility co2emission ETV
vector 308 RSUExampleScenario3.node[61].veinsmobility acceleration ETV
vector 309 RSUExampleScenario3.node[61].veinsmobility co2emission ETV
vector 310 RSUExampleScenario3.node[62].veinsmobility posx ETV
vector 311 RSUExampleScenario3.node[62].veinsmobility posy ETV
vector 312 RSUExampleScenario3.node[63].veinsmobility posx ETV
vector 313 RSUExampleScenario3.node[63].veinsmobility posy ETV
vector 314 RSUExampleScenario3.node[62].veinsmobility speed ETV
vector 315 RSUExampleScenario3.node[63].veinsmobility speed ETV
127	374792 3990 3869 16862 89 225 137 0.973 8.3111466576312 315.02181052673 857.2542855445
126	378782 4355 3869 16862 89 225 137 -0.42512485718772 2.0918868146418 11.535454351031 23.707719374387
124	383137 4046 3342 16862 88 225 138 3.162739005315 14.78037860753 1987.2851179288 28940.290475
121	387183 2561 3335 16862 87 225 139 20.2 23.4 2964.6 63554.04
120	389744 4074 3335 16862 87 225 139 30.461045600953 2011.8739534749 138766.33557544 186550422.28334
vector 316 RSUExampleScenario3.node[62].veinsmobility acceleration ETV
vector 317 RSUExampleScenario3.node[62].veinsmobility co2emission ETV
vector 318 RSUExampleScenario3.node[63].veinsmobility acceleration ETV
vector 319 RSUExampleScenario3.node[63].veinsmobility co2emission ETV
169	394100 3150 6403 17687 118 227 110 0.973 13.747298661407 371.69155798455 1909.4740032782
168	397250 3491 6403 17687 118 227 110 -1.7529156183583 2.2648869645386 17.338278025874 65.910838229662
165	400741 3277 5739 17687 117 227 111 3.6711907128309 21.044274174807 1985.8042342803 37930.744901254
163	404018 2090 5732 17687 116 227 112 23.4 23.4 2620.8 61326.72
162	406108 3309 5732 17687 116 227 112 30.785913935485 2007.3437341341 113166.16235654 151038489.44963
167	409417 3173 6403 17689 118 229 112 0.973 13.767237858308 381.58191420762 1892.2661802248
166	412590 3512 6403 17689 118 229 112 -1.4568355661046 2.1953262552829 19.567290507192 59.886055719235
164	416102 3343 5739 17689 117 229 113 3.4124092394718 22.979699746663 2000.1042635262 37693.85193029
161	419445 2128 5732 17689 116 229 114 20.2 23.4 2635.6 61026.64
160	421573 3372 5732 17689 116 229 114 30.781520768267 2021.6219443733 114619.28689904 153494190.32059
177	424945 2933 7115 17690 125 230 106 0.4258731499056 20.143868305978 415.48173439908 3487.3324187572
176	427878 3316 7115 17690 125 230 106 -1.1652930824067 2.1310039385478 21.691135268441 91.710662417628
174	431194 3172 6415 17690 124 230 107 3.1620206709953 30.869194288408 1998.8667704463 40707.235843809
171	434366 2021 6408 17690 123 230 108 20.2 23.4 2447.2 55648.48
170	436387 3195 6408 17690 123 230 108 30.464426684383 2017.6897579838 111788.96979348 150970699.4234
vector 320 RSUExampleScenario3.node[64].veinsmobility posx ETV
vector 321 RSUExampleScenario3.node[64].veinsmobility posy ETV
vector 322 RSUExampleScenario3.node[65].veinsmobility posx ETV
vector 323 RSUExampleScenario3.node[65].veinsmobility posy ETV
187	439834 2865 7861 17691 132 231 100 0.973 12.931347385903 379.42026764839 2051.7672140332
186	442699 3164 7861 17691 132 231 100 -1.7412041324688 2.1373382337229 18.787891392559 61.727322029169
184	445863 2999 7127 17691 131 231 101 2.8735857518372 21.676129679914 1994.1406874873 40740.256555318
181	448862 1914 7120 17691 130 231 102 20.2 23.4 2364.4 54874.48
180	450776 3018 7120 17691 130 231 102 30.249740873023 2014.7150372475 99803.893084893 134237863.02776
vector 324 RSUExampleScenario3.node[64].veinsmobility speed ETV
vector 325 RSUExampleScenario3.node[65].veinsmobility speed ETV
vector 326 RSUExampleScenario3.node[64].veinsmobility acceleration ETV
vector 327 RSUExampleScenario3.node[64].veinsmobility co2emission ETV
vector 328 RSUExampleScenario3.node[65].veinsmobility acceleration ETV
vector 329 RSUExampleScenario3.node[65].veinsmobility co2emission ETV
vector 330 RSUExampleScenario3.node[66].veinsmobility posx ETV
vector 331 RSUExampleScenario3.node[66].veinsmobility posy ETV
vector 332 RSUExampleScenario3.node[67].veinsmobility posx ETV
vector 333 RSUExampleScenario3.node[67].veinsmobility posy ETV
vector 334 RSUExampleScenario3.node[66].veinsmobility speed ETV
vector 335 RSUExampleScenario3.node[67].veinsmobility speed ETV
vector 336 RSUExampleScenario3.node[66].veinsmobility acceleration ETV
vector 337 RSUExampleScenario3.node[66].veinsmobility co2emission ETV
vector 338 RSUExampleScenario3.node[67].veinsmobility acceleration ETV
vector 339 RSUExampleScenario3.node[67].veinsmobility co2emission ETV
vector 340 RSUExampleScenario3.node[68].veinsmobility posx ETV
vector 341 RSUExampleScenario3.node[68].veinsmobility posy ETV
vector 342 RSUExampleScenario3.node[69].veinsmobility posx ETV
vector 343 RSUExampleScenario3.node[69].veinsmobility posy ETV
vector 344 RSUExampleScenario3.node[68].veinsmobility speed ETV
vector 345 RSUExampleScenario3.node[69].veinsmobility speed ETV
vector 346 RSUExampleScenario3.node[68].veinsmobility acceleration ETV
vector 347 RSUExampleScenario3.node[68].veinsmobility co2emission ETV
vector 348 RSUExampleScenario3.node[69].veinsmobility acceleration ETV
vector 349 RSUExampleScenario3.node[69].veinsmobility co2emission ETV
vector 350 RSUExampleScenario3.node[70].veinsmobility posx ETV
vector 351 RSUExampleScenario3.node[70].veinsmobility posy ETV
vector 352 RSUExampleScenario3.node[71].veinsmobility posx ETV
vector 353 RSUExampleScenario3.node[71].veinsmobility posy ETV
119	455780 4895 3330 20070 82 253 172 0.973 7.2846178589043 346.2301356245 891.82871052669
118	460675 5464 3330 20070 82 253 172 -1.287615551847 2.1193537985021 8.890824136029 39.08386492952
115	466139 5082 2835 20070 81 253 173 3.647808327952 12.584725720862 1992.3319838207 23556.837989957
113	471221 3212 2828 20070 80 253 174 20.2 23.4 3722.8 80067.76
112	474433 5107 2828 20070 80 253 174 30.77543229864 2017.3317150065 176504.11575517 235531198.29054
vector 354 RSUExampleScenario3.node[70].veinsmobility speed ETV
vector 355 RSUExampleScenario3.node[71].veinsmobility speed ETV
147	479668 4452 5069 20077 103 254 152 0.973 7.7042389194512 330.81123828545 880.20902103123
146	484120 4858 5069 20077 103 254 152 -1.4140573493435 1.9813942870684 10.85581887869 32.779501980376
144	488978 4524 4462 20077 102 254 153 2.5254963378605 13.424735856934 1991.1337576599 26207.243645212
141	493502 2873 4455 20077 101 254 154 20.2 23.4 3299.6 71069.84
140	496375 4551 4455 20077 101 254 154 30.125168123194 2015.8624865815 154904.80426828 209146765.59779
vector 356 RSUExampleScenario3.node[70].veinsmobility acceleration ETV
vector 357 RSUExampleScenario3.node[70].veinsmobility co2emission ETV
vector 358 RSUExampleScenario3.node[71].veinsmobility acceleration ETV
vector 359 RSUExampleScenario3.node[71].veinsmobility co2emission ETV
89	501208 5458 1974 20936 60 256 197 0.973 6.3415529368707 349.83460712936 700.06482588467
88	506666 6047 1974 20936 60 256 197 -0.79081653946388 2.1992306617601 7.378181279665 21.084862537243
85	512713 5582 1637 20936 59 256 198 2.8601475548305 10.350614965447 1994.4345291689 20227.415648557
83	518295 3444 1630 20936 58 256 199 20.2 23.4 4189.4 88594.52
82	521739 5607 1630 20936 58 256 199 30.253207300014 2020.6814483335 201767.58126739 271637345.8433
vector 360 RSUExampleScenario3.node[72].veinsmobility posx ETV
vector 361 RSUExampleScenario3.node[72].veinsmobility posy ETV
vector 362 RSUExampleScenario3.node[73].veinsmobility posx ETV
vector 363 RSUExampleScenario3.node[73].veinsmobility posy ETV
vector 364 RSUExampleScenario3.node[72].veinsmobility speed ETV
vector 365 RSUExampleScenario3.node[73].veinsmobility speed ETV
vector 366 RSUExampleScenario3.node[72].veinsmobility acceleration ETV
vector 367 RSUExampleScenario3.node[72].veinsmobility co2emission ETV
vector 368 RSUExampleScenario3.node[73].veinsmobility acceleration ETV
vector 369 RSUExampleScenario3.node[73].veinsmobility co2emission ETV
vector 370 RSUExampleScenario3.node[74].veinsmobility posx ETV
vector 371 RSUExampleScenario3.node[74].veinsmobility posy ETV
vector 372 RSUExampleScenario3.node[75].veinsmobility posx ETV
vector 373 RSUExampleScenario3.node[75].veinsmobility posy ETV
vector 374 RSUExampleScenario3.node[74].veinsmobility speed ETV
vector 375 RSUExampleScenario3.node[75].veinsmobility speed ETV
vector 376 RSUExampleScenario3.node[74].veinsmobility acceleration ETV
vector 377 RSUExampleScenario3.node[74].veinsmobility co2emission ETV
vector 378 RSUExampleScenario3.node[75].veinsmobility acceleration ETV
vector 379 RSUExampleScenario3.node[75].veinsmobility co2emission ETV
vector 380 RSUExampleScenario3.node[76].veinsmobility posx ETV
vector 381 RSUExampleScenario3.node[76].veinsmobility posy ETV
vector 382 RSUExampleScenario3.node[77].veinsmobility posx ETV
vector 383 RSUExampleScenario3.node[77].veinsmobility posy ETV
vector 384 RSUExampleScenario3.node[76].veinsmobility speed ETV
vector 385 RSUExampleScenario3.node[77].veinsmobility speed ETV
vector 386 RSUExampleScenario3.node[76].veinsmobility acceleration ETV
vector 387 RSUExampleScenario3.node[76].veinsmobility co2emission ETV
vector 388 RSUExampleScenario3.node[77].veinsmobility acceleration ETV
vector 389 RSUExampleScenario3.node[77].veinsmobility co2emission ETV
227	529332 3214 10841 23579 161 279 119 0.973 18.721874266109 466.28957497546 3440.6391250599
226	532546 3746 10841 23579 161 279 119 -2.7078232925573 2.1415485359495 17.130712951652 141.12397158546
224	536292 3583 10198 23579 160 279 120 3.3065556068071 29.427056830073 1999.0695640095 39757.119081366
221	539875 2299 10191 23579 159 279 121 20.2 23.4 2799.4 64859.56
220	542174 3624 10191 23579 159 279 121 30.467790320023 2020.7389415672 111065.59906234 151181510.65289
239	545798 3028 11591 23580 168 280 113 0.4402106693787 16.066109214137 456.87394197335 3299.0860757992
238	548826 3534 11591 23580 168 280 113 -2.2788519673689 2.1530108166044 18.143040888834 132.51839722455
235	552360 3407 10853 23580 167 280 114 2.84152351882 27.215432538589 1996.3309375764 39796.900231671
233	555767 2185 10846 23580 166 280 115 20.2 23.4 2675 62271.8
232	557952 3437 10846 23580 166 280 115 30.252452929079 2018.2598382423 107945.65872031 146146480.3439
vector 390 RSUExampleScenario3.node[78].veinsmobility posx ETV
vector 391 RSUExampleScenario3.node[78].veinsmobility posy ETV
vector 392 RSUExampleScenario3.node[79].veinsmobility posx ETV
vector 393 RSUExampleScenario3.node[79].veinsmobility posy ETV
vector 394 RSUExampleScenario3.node[78].veinsmobility speed ETV
vector 395 RSUExampleScenario3.node[79].veinsmobility speed ETV
47	561769 7068 720 23588 31 282 252 0.973 4.5949414297254 395.22700546282 644.36705434798
46	568837 7742 720 23588 31 282 252 -0.31448746447757 2.0173655618168 5.3834533389744 11.086947543403
44	576579 7111 499 23588 30 282 253 2.509897900197 7.9917203629837 1992.5186794017 15736.51419055
41	583690 4362 492 23588 29 282 254 20.2 23.4 5230 107967.28
40	588052 7131 492 23588 29 282 254 30.125628235665 2019.9645181253 258828.6784511 349360393.23005
vector 396 RSUExampleScenario3.node[78].veinsmobility acceleration ETV
vector 397 RSUExampleScenario3.node[78].veinsmobility co2emission ETV
vector 398 RSUExampleScenario3.node[79].veinsmobility acceleration ETV
vector 399 RSUExampleScenario3.node[79].veinsmobility co2emission ETV
229	595465 3376 10841 24518 161 283 123 0.973 11.915273482155 390.28421981734 2096.1492738723
228	598841 3898 10841 24518 161 283 123 -1.6057324068244 2.1878037819033 16.363306870646 91.019354023784
225	602739 3702 10198 24518 160 283 124 3.2523141263541 19.624383974966 1994.4534501548 34319.858908866
223	606441 2375 10191 24518 159 283 125 20.2 23.4 2870.6 66073.16
222	608816 3737 10191 24518 159 283 125 30.465445113041 2016.6301462398 114237.65373942 148342441.48101
9	612553 7588 62 24520 3 285 283 1.289579200778 3.9284554839138 423.3046385651 644.64083249393
8	620141 8324 62 24520 3 285 283 -0.11194820643868 1.7589939742233 2.7971752950625 4.9940875265817
5	628465 7610 9 24520 2 285 284 4.1695485793754 7.0868580584235 1989.7905130145 13950.698503507
3	636075 4531 2 24520 1 285 285 20.2 23.4 5789 117686.6
2	640606 7629 2 24520 1 285 285 31.171233400987 2019.3743608034 291372.33622268 392985554.46553
149	648235 5322 5069 24520 103 285 183 0.973 7.184114273383 348.34027252243 791.91637009507
148	653557 5853 5069 24520 103 285 183 -1.028384742751 2.1607868162193 9.0868414438747 31.714445626977
145	659410 5445 4462 24520 102 285 184 2.4597164258851 11.633578561095 1990.284627859 22058.348091671
143	664855 3462 4455 24520 101 285 185 20.2 23.4 3833 79673
142	668317 5474 4455 24520 101 285 185 30.125652102191 2014.9344306348 195117.31726474 272841021.29583
vector 400 RSUExampleScenario3.node[80].veinsmobility posx ETV
vector 401 RSUExampleScenario3.node[80].veinsmobility posy ETV
vector 402 RSUExampleScenario3.node[81].veinsmobility posx ETV
vector 403 RSUExampleScenario3.node[81].veinsmobility posy ETV
249	674043 3312 12383 24524 175 289 115 0.973 11.142075995636 358.80821203964 1543.4690651411
248	677355 3674 12383 24524 175 289 115 -1.6527464772859 2.0877767347638 16.415363490004 58.368364978987
245	681029 3468 11603 24524 174 289 116 2.3918249761388 18.812264479376 2000.1972258964 35640.930435328
243	684497 2223 11596 24524 173 289 117 20.2 23.4 2651.4 60297.48
242	686720 3493 11596 24524 173 289 117 30.124765803665 2021.9458934529 113198.03183572 150965364.30533
199	690213 4447 8647 24524 139 289 151 0.973 8.0152465939856 330.1699244393 899.94890444182
198	694660 4873 8647 24524 139 289 151 -1.4494370142331 2.0161792609841 11.039178537655 35.614151120472
195	699533 4521 7873 24524 138 289 152 2.3706781956125 13.486204424149 1988.5943461025 26329.423687251
193	704054 2890 7866 24524 137 289 153 20.2 23.4 3253.8 69545.64
192	706944 4555 7866 24524 137 289 153 30.125482550105 2013.0134739462 153531.42747012 206701413.42274
vector 404 RSUExampleScenario3.node[80].veinsmobility speed ETV
vector 405 RSUExampleScenario3.node[81].veinsmobility speed ETV
vector 406 RSUExampleScenario3.node[80].veinsmobility acceleration ETV
vector 407 RSUExampleScenario3.node[80].veinsmobility co2emission ETV
vector 408 RSUExampleScenario3.node[81].veinsmobility acceleration ETV
vector 409 RSUExampleScenario3.node[81].veinsmobility co2emission ETV
vector 410 RSUExampleScenario3.node[82].veinsmobility posx ETV
vector 411 RSUExampleScenario3.node[82].veinsmobility posy ETV
vector 412 RSUExampleScenario3.node[83].veinsmobility posx ETV
vector 413 RSUExampleScenario3.node[83].veinsmobility posy ETV
269	712161 3089 13844 25388 190 296 107 0.973 12.116321350953 360.95921151229 1771.9051231376
268	715250 3417 13844 25388 190 296 107 -1.7112967627405 2.1537370300712 16.020288368563 58.679935179184
265	718667 3231 13134 25388 189 296 108 3.8336722109846 19.955855546561 1996.5659207124 37856.589466335
263	721898 2071 13127 25388 188 296 109 23.4 23.4 2550.6 59684.04
262	723969 3255 13127 25388 188 296 109 30.782389132225 2018.9199788889 105706.33370652 141474818.24087
vector 414 RSUExampleScenario3.node[82].veinsmobility speed ETV
vector 415 RSUExampleScenario3.node[83].veinsmobility speed ETV
vector 416 RSUExampleScenario3.node[82].veinsmobility acceleration ETV
vector 417 RSUExampleScenario3.node[82].veinsmobility co2emission ETV
vector 418 RSUExampleScenario3.node[83].veinsmobility acceleration ETV
vector 419 RSUExampleScenario3.node[83].veinsmobility co2emission ETV
217	727634 4152 10186 26270 154 299 146 0.973 11.472491743433 365.24209584672 1371.6713127208
216	731786 4660 10186 26270 154 299 146 -1.524478050029 2.1979540784028 14.628738237477 57.942099772698
214	736446 4391 9431 26270 153 299 147 3.705243532565 18.452582150439 1997.3291290847 29974.029176928
211	740837 2810 9424 26270 152 299 148 20.2 23.4 3268 72528.16
210	743647 4429 9424 26270 152 299 148 30.752549623356 2020.5679834115 129101.20551021 161613142.66247
257	748076 3387 13122 26272 183 301 119 -1.2654682116064 20.995491807608 480.49515371603 4059.5494155866
256	751463 3771 13122 26272 183 301 119 -1.6632211422955 2.1220358157205 25.823964059512 98.630297545017
254	755234 3578 12396 26272 182 301 120 4.1726333090978 32.181696419295 1982.0664639615 40870.453309282
251	758812 2299 12389 26272 181 301 121 20.2 23.4 2722.6 61511.08
250	761111 3615 12389 26272 181 301 121 31.151195291087 2000.1884719357 93905.963032191 109077935.51928
vector 420 RSUExampleScenario3.node[84].veinsmobility posx ETV
vector 421 RSUExampleScenario3.node[84].veinsmobility posy ETV
vector 422 RSUExampleScenario3.node[85].veinsmobility posx ETV
vector 423 RSUExampleScenario3.node[85].veinsmobility posy ETV
vector 424 RSUExampleScenario3.node[84].veinsmobility speed ETV
vector 425 RSUExampleScenario3.node[85].veinsmobility speed ETV
vector 426 RSUExampleScenario3.node[84].veinsmobility acceleration ETV
vector 427 RSUExampleScenario3.node[84].veinsmobility co2emission ETV
vector 428 RSUExampleScenario3.node[85].veinsmobility acceleration ETV
vector 429 RSUExampleScenario3.node[85].veinsmobility co2emission ETV
vector 430 RSUExampleScenario3.node[86].veinsmobility posx ETV
vector 431 RSUExampleScenario3.node[86].veinsmobility posy ETV
vector 432 RSUExampleScenario3.node[87].veinsmobility posx ETV
vector 433 RSUExampleScenario3.node[87].veinsmobility posy ETV
vector 434 RSUExampleScenario3.node[86].veinsmobility speed ETV
vector 435 RSUExampleScenario3.node[87].veinsmobility speed ETV
vector 436 RSUExampleScenario3.node[86].veinsmobility acceleration ETV
vector 437 RSUExampleScenario3.node[86].veinsmobility co2emission ETV
vector 438 RSUExampleScenario3.node[87].veinsmobility acceleration ETV
vector 439 RSUExampleScenario3.node[87].veinsmobility co2emission ETV
157	766050 6008 5727 28091 111 314 204 0.973 5.977093347314 353.38487509365 670.76238853301
156	772058 6570 5727 28091 111 314 204 -0.5995035894958 2.0238371851039 5.9224705612919 15.768548584811
154	778628 6089 5082 28091 110 314 205 3.9590462968596 9.9073564055058 1994.9281455213 19482.756501887
151	784717 3869 5075 28091 109 314 206 20.2 23.4 4199.6 85730.48
150	788586 6098 5075 28091 109 314 206 31.176451310701 2023.4379324566 210827.8021715 285906058.73522
vector 440 RSUExampleScenario3.node[88].veinsmobility posx ETV
vector 441 RSUExampleScenario3.node[88].veinsmobility posy ETV
vector 442 RSUExampleScenario3.node[89].veinsmobility posx ETV
vector 443 RSUExampleScenario3.node[89].veinsmobility posy ETV
vector 444 RSUExampleScenario3.node[88].veinsmobility speed ETV
vector 445 RSUExampleScenario3.node[89].veinsmobility speed ETV
69	795064 7726 1312 28101 46 318 273 1.277584953435 4.3089630251579 414.62257956959 646.69812486992
68	802790 8444 1312 28101 46 318 273 -0.12426292752614 1.9945148025383 3.6370568474565 7.2621341450613
65	811234 7742 1008 28101 45 318 274 3.6788387204132 7.3669492642585 1995.7033877678 14551.964651323
63	818976 4784 1001 28101 44 318 275 20.2 23.4 5587 113606.2
62	823760 7774 1001 28101 44 318 275 30.757866666578 2023.9371627763 281477.33279147 380485471.93116
vector 446 RSUExampleScenario3.node[88].veinsmobility acceleration ETV
vector 447 RSUExampleScenario3.node[88].veinsmobility co2emission ETV
vector 448 RSUExampleScenario3.node[89].veinsmobility acceleration ETV
vector 449 RSUExampleScenario3.node[89].veinsmobility co2emission ETV
219	831816 4809 10186 28960 154 319 166 0.973 8.3365153605631 347.20805326454 945.24558042662
218	836625 5359 10186 28960 154 319 166 -1.3933426790572 2.0311973935482 9.7202626952486 42.145372192557
215	841984 4992 9431 28960 153 319 167 3.6511597400161 13.606713707857 1987.2254777035 24940.657040593
213	846976 3190 9424 28960 152 319 168 20.2 23.4 3592 77200.96
212	850166 5018 9424 28960 152 319 168 30.767045122612 2011.9556592572 158163.05966431 206641072.59356
vector 450 RSUExampleScenario3.node[90].veinsmobility posx ETV
vector 451 RSUExampleScenario3.node[90].veinsmobility posy ETV
vector 452 RSUExampleScenario3.node[91].veinsmobility posx ETV
vector 453 RSUExampleScenario3.node[91].veinsmobility posy ETV
vector 454 RSUExampleScenario3.node[90].veinsmobility speed ETV
vector 455 RSUExampleScenario3.node[91].veinsmobility speed ETV
vector 456 RSUExampleScenario3.node[90].veinsmobility acceleration ETV
vector 457 RSUExampleScenario3.node[90].veinsmobility co2emission ETV
vector 458 RSUExampleScenario3.node[91].veinsmobility acceleration ETV
vector 459 RSUExampleScenario3.node[91].veinsmobility co2emission ETV
299	855846 3388 16052 29836 211 331 121 0.973 22.074192583374 515.78251427349 4661.2532662284
298	859234 3801 16052 29836 211 331 121 -2.0616220969429 2.2138739544642 29.827174707476 135.16707687381
295	863035 3648 15297 29836 210 331 122 2.3532138855765 32.181294776773 2006.6326892547 37469.902071638
293	866683 2337 15290 29836 209 331 123 20.2 23.4 2801.4 64001.4
292	869020 3678 15290 29836 209 331 123 30.125015116726 2023.2919531336 115482.05247462 143703067.92841
vector 460 RSUExampleScenario3.node[92].veinsmobility posx ETV
vector 461 RSUExampleScenario3.node[92].veinsmobility posy ETV
vector 462 RSUExampleScenario3.node[93].veinsmobility posx ETV
vector 463 RSUExampleScenario3.node[93].veinsmobility posy ETV
vector 464 RSUExampleScenario3.node[92].veinsmobility speed ETV
vector 465 RSUExampleScenario3.node[93].veinsmobility speed ETV
vector 466 RSUExampleScenario3.node[92].veinsmobility acceleration ETV
vector 467 RSUExampleScenario3.node[92].veinsmobility co2emission ETV
vector 468 RSUExampleScenario3.node[93].veinsmobility acceleration ETV
vector 469 RSUExampleScenario3.node[93].veinsmobility co2emission ETV
267	873360 4330 13844 30794 190 335 146 0.973 8.9296204391079 326.38350353441 886.73218023
266	877690 4718 13844 30794 190 335 146 -1.3802454553571 2.1286529922322 10.081877440791 30.095667241307
264	882408 4387 13134 30794 189 335 147 3.7378198850025 13.878732830223 1990.3266540702 27180.501107596
261	886795 2812 13127 30794 188 335 148 20.2 23.4 3242.4 71412
260	889607 4425 13127 30794 188 335 148 30.770400040625 2015.7492796718 148556.75042159 200084018.8672
vector 470 RSUExampleScenario3.node[94].veinsmobility posx ETV
vector 471 RSUExampleScenario3.node[94].veinsmobility posy ETV
vector 472 RSUExampleScenario3.node[95].veinsmobility posx ETV
vector 473 RSUExampleScenario3.node[95].veinsmobility posy ETV
vector 474 RSUExampleScenario3.node[94].veinsmobility speed ETV
vector 475 RSUExampleScenario3.node[95].veinsmobility speed ETV
287	894412 3918 15285 30805 204 340 137 0.973 10.029446173127 341.28407619631 1247.9463063204
286	898330 4395 15285 30805 204 340 137 -1.4574740527885 2.1511267877766 12.871401327253 55.499663649735
284	902725 4127 14529 30805 203 340 138 2.8838706921317 15.791379477843 1986.5258572127 29243.431078207
281	906852 2641 14522 30805 202 340 139 20.2 23.4 3083 68716.28
280	909493 4156 14522 30805 202 340 139 30.245987550993 2009.731240215 134800.87334807 177685122.7542
vector 476 RSUExampleScenario3.node[94].veinsmobility acceleration ETV
vector 477 RSUExampleScenario3.node[94].veinsmobility co2emission ETV
vector 478 RSUExampleScenario3.node[95].veinsmobility acceleration ETV
vector 479 RSUExampleScenario3.node[95].veinsmobility co2emission ETV
329	913931 3136 18467 31774 233 345 113 0.87172461177988 17.367416592044 442.98718113993 3693.274022735
328	917067 3575 18467 31774 233 345 113 -1.4273585281634 2.2111630965187 25.200980054612 100.64487668778
325	920642 3407 17698 31774 232 345 114 3.2257006040219 28.441347434178 1988.0802604586 38765.565392365
323	924049 2185 17691 31774 231 345 115 23.4 23.4 2691 62969.4
322	926234 3433 17691 31774 231 345 115 30.467165875111 2006.4527107719 109667.13674258 137545607.0155
vector 480 RSUExampleScenario3.node[96].veinsmobility posx ETV
vector 481 RSUExampleScenario3.node[96].veinsmobility posy ETV
vector 482 RSUExampleScenario3.node[97].veinsmobility posx ETV
vector 483 RSUExampleScenario3.node[97].veinsmobility posy ETV
327	929919 3116 18467 31775 233 346 114 0.74110360400233 16.915328560575 445.65395871353 3482.5509363517
326	933035 3591 18467 31775 233 346 114 -1.4751301248799 2.1660658428119 25.66439705492 97.535213791077
324	936626 3436 17698 31775 232 346 115 3.1780095563378 28.842406611258 1982.3048162982 38356.266460024
321	940062 2204 17691 31775 231 346 116 20.2 23.4 2685.6 62261.28
320	942266 3464 17691 31775 231 346 116 30.467949254116 1999.2599551664 108613.66001282 135803720.96722
vector 484 RSUExampleScenario3.node[96].veinsmobility speed ETV
vector 485 RSUExampleScenario3.node[97].veinsmobility speed ETV
vector 486 RSUExampleScenario3.node[96].veinsmobility acceleration ETV
vector 487 RSUExampleScenario3.node[96].veinsmobility co2emission ETV
vector 488 RSUExampleScenario3.node[97].veinsmobility acceleration ETV
vector 489 RSUExampleScenario3.node[97].veinsmobility co2emission ETV
307	946140 3619 16850 32726 219 348 130 0.973 21.104555205779 481.89450013723 3390.6381436572
306	949759 4082 16850 32726 219 348 130 -2.1578911952759 2.1722461057012 28.091690145376 109.33797390279
304	953841 3916 16065 32726 218 348 131 3.9783632488448 32.070053394221 2006.2933409262 35255.248601731
301	957757 2508 16058 32726 217 348 132 20.2 23.4 2973.6 67255.2
300	960265 3944 16058 32726 217 348 132 31.174061687175 2024.5201097618 118937.70755844 144965177.42279
vector 490 RSUExampleScenario3.node[98].veinsmobility posx ETV
vector 491 RSUExampleScenario3.node[98].veinsmobility posy ETV
vector 492 RSUExampleScenario3.node[99].veinsmobility posx ETV
vector 493 RSUExampleScenario3.node[99].veinsmobility posy ETV
vector 494 RSUExampleScenario3.node[98].veinsmobility speed ETV
vector 495 RSUExampleScenario3.node[99].veinsmobility speed ETV
vector 496 RSUExampleScenario3.node[98].veinsmobility acceleration ETV
vector 497 RSUExampleScenario3.node[98].veinsmobility co2emission ETV
vector 498 RSUExampleScenario3.node[99].veinsmobility acceleration ETV
vector 499 RSUExampleScenario3.node[99].veinsmobility co2emission ETV
279	964871 4695 14517 33705 197 356 160 0.973 7.8340611064869 336.68980101637 874.37380948362
278	969566 5160 14517 33705 197 356 160 -1.185246689974 2.0524859079579 9.3093288231255 34.748123968125
275	974726 4807 13856 33705 196 356 161 3.2579776722236 12.677968088922 1988.3243689085 24753.38585477
273	979533 3078 13849 33705 195 356 162 20.2 23.4 3576.4 79356.88
272	982611 4839 13849 33705 195 356 162 30.469364865612 2013.875173816 163183.13092829 219653957.54144
207	987450 6306 9419 33707 147 358 212 0.973 5.5153264077432 359.66084665158 658.67519867411
206	993756 6876 9419 33707 147 358 212 -0.86808365738732 2.0206288213306 5.5988309760554 14.459961391006
204	1000632 6354 8660 33707 146 358 213 3.8103222720928 9.4724831243415 1989.642008461 18635.605557683
201	1006986 4057 8653 33707 145 358 214 20.2 23.4 4476.4 94017.52
200	1011043 6392 8653 33707 145 358 214 31.157315196568 2018.0779436921 217538.04906497 293282937.25306
vector 500 RSUExampleScenario3.node[100].veinsmobility posx ETV
vector 501 RSUExampleScenario3.node[100].veinsmobility posy ETV
vector 502 RSUExampleScenario3.node[101].veinsmobility posx ETV
vector 503 RSUExampleScenario3.node[101].veinsmobility posy ETV
vector 504 RSUExampleScenario3.node[100].veinsmobility speed ETV
vector 505 RSUExampleScenario3.node[101].veinsmobility speed ETV
vector 506 RSUExampleScenario3.node[100].veinsmobility acceleration ETV
vector 507 RSUExampleScenario3.node[100].veinsmobility co2emission ETV
vector 508 RSUExampleScenario3.node[101].veinsmobility acceleration ETV
vector 509 RSUExampleScenario3.node[101].veinsmobility co2emission ETV
309	1018107 4339 16850 34686 219 367 149 0.973 8.4471517992666 334.63454220461 982.64507558809
308	1022446 4810 16850 34686 219 367 149 -0.91969646615952 2.0760053492268 10.841567171295 35.781627615895
305	1027256 4480 16065 34686 218 367 150 3.8564946537807 14.77435946491 1988.8198761236 27298.995303304
303	1031736 2869 16058 34686 217 367 151 20.2 23.4 3408.6 77240.28
302	1034605 4513 16058 34686 217 367 151 31.179609323214 2014.3938817741 153844.88023294 205105290.35166
vector 510 RSUExampleScenario3.node[102].veinsmobility posx ETV
vector 511 RSUExampleScenario3.node[102].veinsmobility posy ETV
vector 512 RSUExampleScenario3.node[103].veinsmobility posx ETV
vector 513 RSUExampleScenario3.node[103].veinsmobility posy ETV
317	1039374 4060 17686 34687 226 368 143 0.973 10.011746639788 358.11646862963 1437.0020241844
316	1043434 4575 17686 34687 226 368 143 -1.489661481089 2.1108616131125 13.138572521072 63.311923867804
314	1048009 4301 16862 34687 225 368 144 3.7521668985373 16.941569341828 1994.3107683415 28870.037226883
311	1052310 2755 16855 34687 224 368 145 20.2 23.4 3284.2 74652.52
310	1055065 4337 16855 34687 224 368 145 30.790910482925 2018.2330794875 152015.03534869 206519778.31615
vector 514 RSUExampleScenario3.node[102].veinsmobility speed ETV
vector 515 RSUExampleScenario3.node[103].veinsmobility speed ETV
vector 516 RSUExampleScenario3.node[102].veinsmobility acceleration ETV
vector 517 RSUExampleScenario3.node[102].veinsmobility co2emission ETV
vector 518 RSUExampleScenario3.node[103].veinsmobility acceleration ETV
vector 519 RSUExampleScenario3.node[103].veinsmobility co2emission ETV
277	1059818 5107 14517 35657 197 371 175 0.973 7.7920608426085 343.38034241523 818.02643935443
276	1064925 5651 14517 35657 197 371 175 -1.518146318704 2.2042527739191 8.4629990937647 34.636602700358
274	1070576 5256 13856 35657 196 371 176 3.2653617340291 11.74944152819 1989.5620197895 22761.864472922
271	1075832 3363 13849 35657 195 371 177 20.2 23.4 3796.2 81849.96
270	1079195 5294 13849 35657 195 371 177 30.460520159492 2014.8479234928 176486.09679409 236213595.18176
vector 520 RSUExampleScenario3.node[104].veinsmobility posx ETV
vector 521 RSUExampleScenario3.node[104].veinsmobility posy ETV
vector 522 RSUExampleScenario3.node[105].veinsmobility posx ETV
vector 523 RSUExampleScenario3.node[105].veinsmobility posy ETV
vector 524 RSUExampleScenario3.node[104].veinsmobility speed ETV
vector 525 RSUExampleScenario3.node[105].veinsmobility speed ETV
vector 526 RSUExampleScenario3.node[104].veinsmobility acceleration ETV
vector 527 RSUExampleScenario3.node[104].veinsmobility co2emission ETV
vector 528 RSUExampleScenario3.node[105].veinsmobility acceleration ETV
vector 529 RSUExampleScenario3.node[105].veinsmobility co2emission ETV
vector 530 RSUExampleScenario3.node[106].veinsmobility posx ETV
vector 531 RSUExampleScenario3.node[106].veinsmobility posy ETV
vector 532 RSUExampleScenario3.node[107].veinsmobility posx ETV
vector 533 RSUExampleScenario3.node[107].veinsmobility posy ETV
vector 534 RSUExampleScenario3.node[106].veinsmobility speed ETV
vector 535 RSUExampleScenario3.node[107].veinsmobility speed ETV
vector 536 RSUExampleScenario3.node[106].veinsmobility acceleration ETV
vector 537 RSUExampleScenario3.node[106].veinsmobility co2emission ETV
vector 538 RSUExampleScenario3.node[107].veinsmobility acceleration ETV
vector 539 RSUExampleScenario3.node[107].veinsmobility co2emission ETV
337	1085833 3934 19283 37689 240 385 146 0.973 14.926540199682 548.54042617653 4015.2653195842
336	1089767 4581 19283 37689 240 385 146 -2.6614137542944 2.1997300370596 20.359404442456 229.57044344341
334	1094348 4395 18479 37689 239 385 147 2.8032464544071 23.178983379177 2000.5333306933 33072.987676287
331	1098743 2812 18472 37689 238 385 148 20.2 23.4 3415.2 78946.08
330	1101555 4417 18472 37689 238 385 148 30.25144323729 2020.7947869183 150170.0710682 199036781.82671
347	1105972 3674 20064 37690 247 386 140 0.973 14.883444407102 527.77862187068 3703.8167492523
346	1109646 4376 20064 37690 247 386 140 -2.2410272803689 2.1687970583677 20.46162784531 197.64343179824
344	1114022 4216 19295 37690 246 386 141 2.4627493281848 23.030733599138 1995.5005273078 33944.361839386
341	1118238 2698 19288 37690 245 386 142 20.2 23.4 3201.2 72451.76
340	1120936 4247 19288 37690 245 386 142 30.125169215618 2015.6111742052 145131.46942075 188921838.54263
259	1125183 5958 13122 37690 183 386 204 0.973 6.9893415985613 363.16266180601 773.66271956338
258	1131141 6597 13122 37690 183 386 204 -1.3039083690048 2.1230943905655 6.0352707932338 32.796235505747
255	1137738 6126 12396 37690 182 386 205 4.3384064998206 10.391674439708 1991.8723986837 19612.208271903
253	1143864 3914 12389 37690 181 386 206 20.2 23.4 4414 95078.32
252	1147778 6161 12389 37690 181 386 206 31.196986705854 2018.760788733 208698.9279447 278375652.88767
359	1153939 3541 20935 37692 255 388 134 0.973 17.063955404423 563.64263375655 4681.828863217
358	1157480 4175 20935 37692 255 388 134 -2.5057611413484 2.21060268695 21.842970747786 209.05670184562
355	1161655 4033 20077 37692 254 388 135 4.2371454116132 26.093884525464 1996.0468354653 35682.291877519
353	1165688 2584 20070 37692 253 388 136 20.2 23.4 3153.6 73212.48
352	1168272 4061 20070 37692 253 388 136 31.207108431647 2016.239503714 146750.6492914 199887688.77996
vector 540 RSUExampleScenario3.node[108].veinsmobility posx ETV
vector 541 RSUExampleScenario3.node[108].veinsmobility posy ETV
vector 542 RSUExampleScenario3.node[109].veinsmobility posx ETV
vector 543 RSUExampleScenario3.node[109].veinsmobility posy ETV
vector 544 RSUExampleScenario3.node[108].veinsmobility speed ETV
vector 545 RSUExampleScenario3.node[109].veinsmobility speed ETV
vector 546 RSUExampleScenario3.node[108].veinsmobility acceleration ETV
vector 547 RSUExampleScenario3.node[108].veinsmobility co2emission ETV
vector 548 RSUExampleScenario3.node[109].veinsmobility acceleration ETV
vector 549 RSUExampleScenario3.node[109].veinsmobility co2emission ETV
237	1173005 6763 11591 38691 168 395 228 0.973 5.4477133116484 376.53110210298 669.72734399688
236	1179768 7398 11591 38691 168 395 228 -0.79052821520867 1.9018287891056 5.7955241896716 17.251202304082
234	1187166 6850 10853 38691 167 395 229 2.9563865240975 8.8450139895478 1991.6028558719 17380.408165147
231	1194016 4370 10846 38691 166 395 230 20.2 23.4 4809.2 100964.72
230	1198386 6884 10846 38691 166 395 230 30.249490496834 2018.5868115063 233672.47475361 314999892.69198
vector 550 RSUExampleScenario3.node[110].veinsmobility posx ETV
vector 551 RSUExampleScenario3.node[110].veinsmobility posy ETV
vector 552 RSUExampleScenario3.node[111].veinsmobility posx ETV
vector 553 RSUExampleScenario3.node[111].veinsmobility posy ETV
339	1205526 4556 19283 38693 240 397 158 0.973 8.0558240564918 353.29290248653 1072.2116792641
338	1210082 5086 19283 38693 240 397 158 -1.5745689289598 1.9595108278049 10.784447923853 57.063656463327
335	1215168 4757 18479 38693 239 397 159 2.9061964446276 13.781503873545 1991.5319587216 25903.777533145
333	1219925 3040 18472 38693 238 397 160 20.2 23.4 3516.8 77703.68
332	1222965 4787 18472 38693 238 397 160 30.246706549665 2015.6860160224 162597.43966105 217302295.82232
vector 554 RSUExampleScenario3.node[110].veinsmobility speed ETV
vector 555 RSUExampleScenario3.node[111].veinsmobility speed ETV
vector 556 RSUExampleScenario3.node[110].veinsmobility acceleration ETV
vector 557 RSUExampleScenario3.node[110].veinsmobility co2emission ETV
vector 558 RSUExampleScenario3.node[111].veinsmobility acceleration ETV
vector 559 RSUExampleScenario3.node[111].veinsmobility co2emission ETV
189	1228168 8019 7861 39690 132 401 270 0.973 4.5888276590513 413.02723254378 652.2937822274
188	1236187 8740 7861 39690 132 401 270 -0.4564906585183 1.9470431136223 4.527455231903 9.690506802152
185	1244927 8083 7127 39690 131 401 271 2.9010043885954 7.4637818001832 1993.7645503196 14699.242971699
183	1253010 5144 7120 39690 130 401 272 20.2 23.4 5568 114195.84
182	1258154 8104 7120 39690 130 401 272 30.248629257095 2021.1635746272 277184.91453396 374072128.69493
357	1266258 4303 20935 39691 255 402 148 0.973 8.4159363918057 339.12316166192 1001.8952690669
356	1270561 4758 20935 39691 255 402 148 -1.6839423663835 1.9911410128232 10.202067168002 43.079459516822
354	1275319 4449 20077 39691 254 402 149 3.7795567802199 14.107330141168 1986.4560575399 26854.866084137
351	1279768 2850 20070 39691 253 402 150 20.2 23.4 3318 73762.8
350	1282618 4484 20070 39691 253 402 150 31.180515483576 2013.1681893537 150872.56739498 201777713.13478
349	1287102 4586 20064 39692 247 403 157 0.973 7.9193618309951 337.77864939736 917.53216088372
348	1291688 5060 20064 39692 247 403 157 -1.6743970926006 2.0775601144833 10.788211807389 38.812919268769
345	1296748 4720 19295 39692 246 403 158 2.5308636041141 13.362513317411 1990.733189409 25552.464629159
343	1301468 3021 19288 39692 245 403 159 20.2 23.4 3439 74784.28
342	1304489 4749 19288 39692 245 403 159 30.125746655046 2015.4876002846 159756.47596593 213601964.72671
vector 560 RSUExampleScenario3.node[112].veinsmobility posx ETV
vector 561 RSUExampleScenario3.node[112].veinsmobility posy ETV
vector 562 RSUExampleScenario3.node[113].veinsmobility posx ETV
vector 563 RSUExampleScenario3.node[113].veinsmobility posy ETV
389	1309494 3685 23576 39693 276 404 129 0.90360487157049 11.587231077221 361.00526147755 1704.6919212578
388	1313179 4112 23576 39693 276 404 129 -1.5429223331031 2.0713167653373 13.40477292843 68.142031457763
385	1317291 3889 22717 39693 275 404 130 2.8615205561365 20.321832487137 1998.2828293497 32210.454641587
383	1321180 2489 22710 39693 274 404 131 23.4 23.4 3065.4 71730.36
382	1323669 3914 22710 39693 274 404 131 30.25022184853 2020.913046982 137318.34294912 190874688.9197
vector 564 RSUExampleScenario3.node[112].veinsmobility speed ETV
vector 565 RSUExampleScenario3.node[113].veinsmobility speed ETV
397	1327713 3372 24518 39700 283 405 123 0.973 13.762828075231 420.32314847757 2725.2720713158
396	1331085 3892 24518 39700 283 405 123 -2.0031313430484 2.1030440310691 15.178045275447 118.08404553558
394	1334977 3706 23588 39700 282 405 124 2.4377045254104 22.538445793691 1993.0466527387 34231.490323671
391	1338683 2375 23581 39700 281 405 125 20.2 23.4 2893 67049.8
390	1341058 3737 23581 39700 281 405 125 30.12510857856 2015.0524301413 119016.91313235 159001201.42488
vector 566 RSUExampleScenario3.node[112].veinsmobility acceleration ETV
vector 567 RSUExampleScenario3.node[112].veinsmobility co2emission ETV
vector 568 RSUExampleScenario3.node[113].veinsmobility acceleration ETV
vector 569 RSUExampleScenario3.node[113].veinsmobility co2emission ETV
407	1345081 3124 25383 40577 291 406 116 0.973 11.7475347984 394.41217813355 2402.6549679589
406	1348205 3657 25383 40577 291 406 116 -2.1945334385228 2.2469497831189 14.812382510546 95.997213792375
404	1351862 3501 24531 40577 290 406 117 3.9372010817003 22.430423601277 1985.9798909941 35206.799777126
401	1355363 2242 24524 40577 289 406 118 20.2 23.4 2726 63077.36
400	1357605 3531 24524 40577 289 406 118 31.170006225578 2009.8226903646 115631.90260255 155326320.97386
419	1361136 2997 26269 40578 298 407 110 0.59930322986029 17.282820459689 405.58316884169 2984.215467486
418	1364133 3442 26269 40578 298 407 110 -1.7279407423083 2.1192924072524 15.650625103263 97.304948088982
415	1367575 3310 25395 40578 297 407 111 3.5969920797038 27.92587342526 1984.532512203 37462.858463046
413	1370885 2128 25388 40578 296 407 112 20.2 23.4 2604.8 60629.12
412	1373013 3350 25388 40578 296 407 112 30.760827987423 2007.0331356273 112959.53085655 152924052.49489
409	1376363 3276 25383 40579 291 408 118 0.973 12.040099893739 362.50611567716 1972.9486179542
408	1379639 3755 25383 40579 291 408 118 -0.96116694352014 2.2340184863145 15.667860631184 71.34985233577
405	1383394 3560 24531 40579 290 408 119 3.9474616924302 19.726587451611 1983.2513199622 34481.378702062
403	1386954 2280 24524 40579 289 408 120 20.2 23.4 2772.8 64172.48
402	1389234 3591 24524 40579 289 408 120 31.212864550759 2006.4499747293 117302.72777772 153909387.32867
vector 570 RSUExampleScenario3.node[114].veinsmobility posx ETV
vector 571 RSUExampleScenario3.node[114].veinsmobility posy ETV
vector 572 RSUExampleScenario3.node[115].veinsmobility posx ETV
vector 573 RSUExampleScenario3.node[115].veinsmobility posy ETV
vector 574 RSUExampleScenario3.node[114].veinsmobility speed ETV
vector 575 RSUExampleScenario3.node[115].veinsmobility speed ETV
vector 576 RSUExampleScenario3.node[114].veinsmobility acceleration ETV
vector 577 RSUExampleScenario3.node[114].veinsmobility co2emission ETV
vector 578 RSUExampleScenario3.node[115].veinsmobility acceleration ETV
vector 579 RSUExampleScenario3.node[115].veinsmobility co2emission ETV
vector 580 RSUExampleScenario3.node[116].veinsmobility posx ETV
vector 581 RSUExampleScenario3.node[116].veinsmobility posy ETV
vector 582 RSUExampleScenario3.node[117].veinsmobility posx ETV
vector 583 RSUExampleScenario3.node[117].veinsmobility posy ETV
vector 584 RSUExampleScenario3.node[116].veinsmobility speed ETV
vector 585 RSUExampleScenario3.node[117].veinsmobility speed ETV
vector 586 RSUExampleScenario3.node[116].veinsmobility acceleration ETV
vector 587 RSUExampleScenario3.node[116].veinsmobility co2emission ETV
vector 588 RSUExampleScenario3.node[117].veinsmobility acceleration ETV
vector 589 RSUExampleScenario3.node[117].veinsmobility co2emission ETV
vector 590 RSUExampleScenario3.node[118].veinsmobility posx ETV
vector 591 RSUExampleScenario3.node[118].veinsmobility posy ETV
vector 592 RSUExampleScenario3.node[119].veinsmobility posx ETV
vector 593 RSUExampleScenario3.node[119].veinsmobility posy ETV
vector 594 RSUExampleScenario3.node[118].veinsmobility speed ETV
vector 595 RSUExampleScenario3.node[119].veinsmobility speed ETV
289	1394555 6575 15285 42464 204 426 223 0.973 6.2416271540708 377.72079464355 716.89839265126
288	1401130 7221 15285 42464 204 426 223 -1.1639161672974 2.0535183619265 6.8305668826006 24.635051189448
285	1408351 6688 14529 42464 203 426 224 2.7894918493876 9.7403679723405 1997.952882363 18344.485381454
283	1415039 4275 14522 42464 202 426 225 20.2 23.4 4673 97389.8
282	1419314 6725 14522 42464 202 426 225 30.251144043277 2024.0346923127 232614.44147474 312805658.23187
vector 596 RSUExampleScenario3.node[118].veinsmobility acceleration ETV
vector 597 RSUExampleScenario3.node[118].veinsmobility co2emission ETV
vector 598 RSUExampleScenario3.node[119].veinsmobility acceleration ETV
vector 599 RSUExampleScenario3.node[119].veinsmobility co2emission ETV
417	1426325 3870 26269 43381 298 431 134 0.973 9.8958885135867 339.62990872561 1323.6824570174
416	1430195 4310 26269 43381 298 431 134 -2.0811762306581 2.1528612306248 13.484348117947 51.987238735137
414	1434505 4026 25395 43381 297 431 135 3.5795902395405 17.135573980065 1984.5677038132 29979.003014848
411	1438531 2584 25388 43381 296 431 136 20.2 23.4 3131.2 72235.84
410	1441115 4065 25388 43381 296 431 136 30.772908086367 2009.0864927351 141968.07738579 194606537.78627
vector 600 RSUExampleScenario3.node[120].veinsmobility posx ETV
vector 601 RSUExampleScenario3.node[120].veinsmobility posy ETV
vector 602 RSUExampleScenario3.node[121].veinsmobility posx ETV
vector 603 RSUExampleScenario3.node[121].veinsmobility posy ETV
429	1445436 3697 27158 43383 305 433 129 0.973 16.351310957636 368.67908132971 2252.0660848905
428	1449133 4101 27158 43383 305 433 129 -1.3501918014661 2.0156933908048 15.330595996495 71.146412098438
425	1453234 3887 26281 43383 304 433 130 3.2920772821332 27.669700786028 1997.7017155131 32481.117891995
423	1457121 2489 26274 43383 303 433 131 23.4 23.4 3065.4 71730.36
422	1459610 3918 26274 43383 303 433 131 30.469432832579 2019.6255211441 141226.65796966 195919901.97108
vector 604 RSUExampleScenario3.node[120].veinsmobility speed ETV
vector 605 RSUExampleScenario3.node[121].veinsmobility speed ETV
379	1463658 4908 22705 43390 269 434 166 0.973 7.9816518053862 343.50261410937 884.66376175936
378	1468566 5353 22705 43390 269 434 166 -1.4587078677619 2.2060514974897 9.0819757483841 42.116977020748
375	1473919 4993 21815 43390 268 434 167 3.2476584874021 12.334818170544 1999.3629517406 24169.735028844
373	1478912 3192 21808 43390 267 434 168 20.2 23.4 3739.2 83618.88
372	1482104 5018 21808 43390 267 434 168 30.475009038722 2024.3182451976 170164.39630265 229695291.48469
449	1487122 3214 28960 43390 319 434 116 0.21613401560838 19.982729196263 390.37045287537 3136.1514267343
448	1490336 3665 28960 43390 319 434 116 -1.3129039741719 2.2302703738981 17.266145111863 86.075495550921
445	1494001 3494 28101 43390 318 434 117 2.5495935162583 31.900270556667 1992.8463697779 37388.792068084
443	1497495 2242 28094 43390 317 434 118 23.4 23.4 2761.2 64612.08
442	1499737 3534 28094 43390 317 434 118 30.124998358027 2014.1627505362 129751.14740476 183679574.50361
vector 606 RSUExampleScenario3.node[120].veinsmobility acceleration ETV
vector 607 RSUExampleScenario3.node[120].veinsmobility co2emission ETV
vector 608 RSUExampleScenario3.node[121].veinsmobility acceleration ETV
vector 609 RSUExampleScenario3.node[121].veinsmobility co2emission ETV
469	1503557 2747 30793 44352 334 435 102 -1.4821451377288 18.845362771642 477.15115741986 4771.1536899633
468	1506304 3185 30793 44352 334 435 102 -2.2918411883737 2.0816056677723 17.340788064648 133.2976777125
465	1509489 3078 29844 44352 333 435 103 3.6404832259659 32.179852380891 1987.5063022555 42678.097444332
463	1512567 1976 29837 44352 332 435 104 23.4 23.4 2433.6 56946.24
462	1514543 3110 29837 44352 332 435 104 30.790236239405 2009.4902150442 111570.61265187 159996337.12886
447	1517653 3299 28960 44353 319 436 118 0.16259868378596 16.727385343553 412.60641356309 2804.7072171637
446	1520952 3712 28960 44353 319 436 118 -1.8293939597424 2.1902612630767 19.568704046176 103.44403753749
444	1524664 3558 28101 44353 318 436 119 2.5021434264013 26.571762150074 1985.4243320699 36207.968545561
441	1528222 2280 28094 44353 317 436 120 20.2 23.4 2712 61521.6
440	1530502 3581 28094 44353 317 436 120 30.125398715733 2005.3811173696 130116.997928 182833645.83447
427	1534083 3704 27158 44355 305 438 134 0.973 12.020404368028 392.87362562244 1982.2045999806
426	1537787 4234 27158 44355 305 438 134 -2.2099777856591 2.1726040998241 16.458457646765 88.763844415825
424	1542021 4029 26281 44355 304 438 135 3.1431490679615 19.712366243479 1996.6568912855 32193.941507436
421	1546050 2584 26274 44355 303 438 136 20.2 23.4 3028.8 67771.2
420	1548634 4063 26274 44355 303 438 136 30.473891915888 2018.3158914875 143272.63797081 194053091.61283
467	1552697 3011 30793 44356 334 439 106 0.973 12.926703142384 384.2620456837 2061.4291825844
466	1555708 3351 30793 44356 334 439 106 -2.2453658466606 2.0611150822765 16.707232879651 68.801871972914
464	1559059 3201 29844 44356 333 439 107 3.7922761045064 21.911711013832 1990.9015276996 38580.741751628
[...]
4866	21204310 3481 404517 416663 3494 3599 106 4.1801189482743 29.905980785593 1991.4832087242 38928.93293063
4863	21207791 2354 404510 416663 3493 3599 107 20.2 23.4 2471.8 57193.72
4862	21210145 3521 404510 416663 3493 3599 107 31.17288758122 2014.7163496347 110000.41106057 150493883.20279
4684	21213666 7831 389348 416664 3363 3600 238 30.4690988231 1803.9981959149 217143.59560084 261696094.89152
4685	21221497 5236 389348 416664 3363 3600 238 20.2 23.4 4836.4 98369.2
4687	21226733 7795 389355 416664 3364 3600 237 3.021886673442 7.591968957748 1776.2311904593 13338.796411339
4690	21234528 8377 390167 416664 3365 3600 236 -0.11863563155057 2.1128244904918 4.5531383551852 9.419390103005
4691	21242905 7760 390167 416664 3365 3600 236 1.295365064371 5.1421300471275 363.70840335191 581.70440314144
4694	21250665 7580 390172 416664 3370 3600 231 30.254360184754 1946.4386519947 226429.80449073 294274382.12345
4695	21258245 5082 390172 416664 3370 3600 231 20.2 23.4 4803.8 100256.6
4697	21263327 7573 390179 416664 3371 3600 230 2.8112780171583 8.4765259802909 1918.9733557699 16061.052947306
4700	21270900 8116 390966 416664 3372 3600 229 -0.30241300380131 2.0013898290368 5.6127557001251 11.560490310138
4701	21279016 7509 390966 416664 3372 3600 229 0.973 5.0253452849035 367.93386155105 620.96147230715
4772	21286525 5692 397109 416664 3428 3600 173 30.776841958865 2004.5396483784 175911.83548083 237348225.37989
4773	21292217 3806 397109 416664 3428 3600 173 20.2 23.4 3568.2 73799.88
4774	21296023 5694 397109 416664 3428 3600 173 30.781924068151 1138.2399857846 100629.12858557 76591933.287497
4775	21301717 3806 397109 416664 3428 3600 173 20.2 23.4 3517 71567.56
4776	21305523 5657 397116 416664 3429 3600 172 3.6412673750697 11.916620770898 1978.2183243402 22961.946924851
4777	21311180 5657 397116 416664 3429 3600 172 3.6277379920111 6.5365176032279 1109.282283665 7163.034341136
4778	21316837 6051 398010 416664 3430 3600 171 -1.0009185323302 1.9959785426152 8.2294002807409 27.74978471548
4779	21322888 5525 398010 416664 3430 3600 171 0.973 7.2248148654752 335.39022791955 788.2126683608
4780	21328413 6059 398010 416664 3430 3600 171 -0.11480461331084 2.0259368991037 2.8700990061178 5.3212385992456
4781	21334472 5628 398010 416664 3430 3600 171 1.2661607288093 4.159838707538 251.56158172601 380.36983569896
4784	21340100 5458 398015 416664 3435 3600 166 30.467420787097 1003.7675065496 85367.112228023 57311704.237689
4785	21345558 3652 398015 416664 3435 3600 166 20.2 23.4 3385.2 69129.84
4787	21349210 5428 398022 416664 3436 3600 165 3.1157910699204 5.9989123852478 975.17898907514 5772.6378125472
4790	21354638 5811 398863 416664 3437 3600 164 -0.1085036233603 1.7706714652362 2.7848825150708 4.6898002317409
4791	21360449 5392 398863 416664 3437 3600 164 1.2583686698041 3.441710471452 235.67999136366 345.96376566589
4802	21365841 5001 399737 416664 3449 3600 152 30.125607366525 1318.1646420268 99720.866284775 86649088.700333
4803	21370842 3344 399737 416664 3449 3600 152 20.2 23.4 3144 65231.04
4804	21374186 5005 399737 416664 3449 3600 152 30.125123490249 1836.5044253644 139728.87583734 171931008.4417
4805	21379191 3344 399737 416664 3449 3600 152 20.2 23.4 3214.4 68300.48
4806	21382535 4967 399744 416664 3450 3600 151 2.618207247384 9.16483524232 1292.4580803326 11252.797122242
4807	21387502 4968 399744 416664 3450 3600 151 2.3928903049023 12.295982246399 1812.2940960995 21963.194672427
4808	21392470 5301 400577 416664 3451 3600 150 -0.74288165119726 2.0164525552094 6.5443601886272 23.46143538662
4809	21397771 4826 400577 416664 3451 3600 150 0.973 5.7440851204071 253.41306876725 499.60359541808
4810	21402597 5299 400577 416664 3451 3600 150 -1.0722056232868 2.1138210205105 9.8671715014634 25.332375193772
4811	21407896 4913 400577 416664 3451 3600 150 0.973 7.0745447228975 303.24213616662 715.6786597308
4812	21412809 4730 400583 416664 3457 3600 144 31.188225170654 1914.6800987027 137867.46713324 176531243.3157
4813	21417539 3168 400583 416664 3457 3600 144 20.2 23.4 3161.6 69779.84
4816	21420707 4705 400590 416664 3458 3600 143 4.1985975425456 13.529532073489 1888.8462892839 25137.094784265
4818	21425412 5028 401323 416664 3459 3600 142 -1.4303053230603 2.1822084225551 9.3018466316935 27.700299339227
4819	21430440 4613 401323 416664 3459 3600 142 0.973 7.7825891757508 309.43896897709 831.63695421352
4822	21435053 4515 401328 416664 3464 3600 137 30.792061701055 1597.1461675067 109613.55552275 117007245.50061
4823	21439568 3014 401328 416664 3464 3600 137 20.2 23.4 2844.2 59249.96
4826	21442582 4470 401335 416664 3465 3600 136 3.5563430529484 11.805505639743 1570.4878322342 18273.435865141
4828	21447052 4765 402128 416664 3466 3600 135 -1.5475934354474 1.9546867109975 8.1756146159675 20.023642748552
4829	21451817 4430 402128 416664 3466 3600 135 0.973 6.9584801145118 265.69713497184 604.18575562507
4832	21456247 4280 402133 416664 3471 3600 130 30.469807959653 1214.4728566625 81726.582324084 66852692.519703
4833	21460527 2860 402133 416664 3471 3600 130 20.2 23.4 2699.6 56254.16
4836	21463387 4240 402140 416664 3472 3600 129 3.1409823302563 10.000289629027 1188.2804024608 11206.901401478
4838	21467627 4519 402918 416664 3473 3600 128 -1.0198675419189 2.1575478467322 6.7300037189771 23.098994390597
4839	21472146 4116 402918 416664 3473 3600 128 0.973 6.3605817756022 226.36313384101 480.11785325503
4864	21476262 3554 404510 416664 3493 3600 108 31.218032172088 1557.4995615507 83452.625789847 86590881.919022
4865	21479816 2376 404510 416664 3493 3600 108 20.2 23.4 2316 49928.16
4867	21482192 3520 404517 416664 3494 3600 107 4.1449660771272 14.904383075534 1531.046211047 22228.359409785
4870	21485712 3727 405268 416664 3495 3600 106 -1.999246688317 2.2111300366465 10.696627891008 37.809967989216
4871	21489439 3440 405268 416664 3495 3600 106 0.973 8.745145194852 261.74257219358 840.05557662927
4872	21492879 3326 405273 416664 3500 3600 101 30.776569825991 1891.4246004487 93743.917850321 119867971.10005
4873	21496205 2222 405273 416664 3500 3600 101 20.2 23.4 2293 52234.12
4874	21498427 3319 405273 416664 3500 3600 101 30.78299399964 1488.8950710542 74436.153940632 73843344.600249
4875	21501746 2222 405273 416664 3500 3600 101 20.2 23.4 2177.8 47211.4
4876	21503968 3293 405280 416664 3501 3600 100 3.6328240626592 20.987742289905 1866.3172866232 36219.327980372
4877	21507261 3294 405280 416664 3501 3600 100 3.6314171337463 15.313140454724 1464.5687757599 21829.504647713
4878	21510555 3444 406119 416664 3502 3600 99 -1.9584628196149 2.2393050359539 10.41065355326 71.763436836789
4879	21513999 3061 406119 416664 3502 3600 99 0.973 13.114245841417 341.86377542902 1869.9160457966
4880	21517060 3488 406119 416664 3502 3600 99 -2.0423514605958 2.0919400049932 11.594347320109 41.509889422396
4881	21520548 3227 406119 416664 3502 3600 99 0.973 8.6071854369542 254.52003561505 869.05530860437
4882	21523775 3088 406124 416664 3507 3600 94 30.464194104137 1669.9045891827 76784.175016364 85418461.801791
4883	21526863 2068 406124 416664 3507 3600 94 20.2 23.4 2103.6 47285.04
4884	21528931 3097 406124 416664 3507 3600 94 30.461153182799 1394.2207965011 64635.70319529 59508002.990893
4885	21532028 2068 406124 416664 3507 3600 94 20.2 23.4 2058.8 45331.76
4886	21534096 3059 406131 416664 3508 3600 93 3.2730613525262 18.96185864184 1648.0128179868 29953.017799963
4887	21537155 3057 406131 416664 3508 3600 93 3.1493703903582 16.264522577286 1370.8247658324 21114.74280663
4888	21540212 3226 406932 416664 3509 3600 92 -0.722696377233 2.0721536013228 15.618224554709 39.061471782668
4889	21543438 2966 406932 416664 3509 3600 92 0.96345574028118 11.083771691911 284.53659181075 1239.5822918745
4890	21546404 3221 406932 416664 3509 3600 92 -1.9978969590921 2.1187627236219 13.08988337004 56.231355854913
4891	21549625 2939 406932 416664 3509 3600 92 0.973 9.2450425181978 254.93888248004 998.70547705667
4892	21552564 2858 406937 416664 3514 3600 87 30.248550053914 1502.9876058258 63739.188308326 64010872.583738
4893	21555422 1914 406937 416664 3514 3600 87 20.2 23.4 1907.8 42056.92
4894	21557336 2866 406937 416664 3514 3600 87 30.247297564212 695.48548265478 31072.283733751 14486227.332752
4895	21560202 1914 406937 416664 3514 3600 87 20.2 23.4 1786.2 36755.16
4896	21562116 2833 406944 416664 3515 3600 86 2.9611285599568 18.189909736857 1480.2815698985 26156.103302162
4897	21564949 2831 406944 416664 3515 3600 86 2.8514142074699 7.9405431820212 667.9028580542 5221.4911814879
4898	21567780 2978 407764 416664 3516 3600 85 -2.108646474471 2.0541789578553 15.189372440797 42.518587463054
4899	21570758 2749 407764 416664 3516 3600 85 0.973 10.757310936164 263.78072293943 1135.7184942324
4900	21573507 3015 407764 416664 3516 3600 85 -0.10838456067489 2.0540351279685 5.0039638380134 9.1598451466436
4901	21576522 2795 407764 416664 3516 3600 85 1.3274461088751 4.5305858235691 137.77186125071 241.87251290529
4902	21579317 2635 407769 416664 3521 3600 80 30.124907631645 988.71684484355 40182.114566413 27228294.171
4903	21581952 1760 407769 416664 3521 3600 80 20.2 23.4 1644.8 33898.88
4904	21583712 2624 407769 416664 3521 3600 80 30.125934682235 1638.763490478 64298.547160344 70762653.083764
4905	21586336 1760 407769 416664 3521 3600 80 23.4 23.4 1872 43804.8
4906	21588096 2589 407776 416664 3522 3600 79 2.4190996384322 13.126245996683 961.04999806673 12074.359801459
4907	21590685 2601 407776 416664 3522 3600 79 2.5412032997107 26.161571770264 1616.8554136843 35589.028278798
4908	21593286 2744 408563 416664 3523 3600 78 -1.5585728589733 2.0786550734425 4.1147079125657 32.616492857968
4909	21596030 2477 408563 416664 3523 3600 78 0.973 7.3640430410132 170.03211222638 486.78659735649
4910	21598507 2701 408563 416664 3523 3600 78 -1.4558170653709 2.0868631741614 17.304051473031 77.624983103485
4911	21601208 2439 408563 416664 3523 3600 78 -0.00047511246042253 16.81771942422 330.61061858255 2686.1348922053
4912	21603647 2366 408569 416664 3529 3600 72 31.174226361222 868.85246569019 31516.843885018 18329818.972766
4913	21606013 1584 408569 416664 3529 3600 72 20.2 23.4 1486.4 30774.08
4914	21607597 2370 408569 416664 3529 3600 72 31.141961032156 429.02838936383 16459.715065344 4753702.8124538
4915	21609967 1584 408569 416664 3529 3600 72 20.2 23.4 1483.2 30634.56
4916	21611551 2338 408576 416664 3530 3600 71 4.0585401814404 12.260031163063 841.89143685699 10103.606198736
4917	21613889 2337 408576 416664 3530 3600 71 4.0980332042869 5.7099165364295 399.63131888581 2251.8278858873
4918	21616226 2469 409309 416664 3531 3600 70 -0.94089158049434 2.0749302875018 8.1048816340523 18.764384025867
4919	21618695 2281 409309 416664 3531 3600 70 0.973 7.5698864992392 149.91239021563 403.9905913179
4920	21620976 2493 409309 416664 3531 3600 70 -0.098939666829538 1.556771356503 1.4901460636966 2.5502221129811
4921	21623469 2299 409309 416664 3531 3600 70 1.2625878940316 3.5210722665251 99.993848796594 147.5269549358
4922	21625768 2132 409314 416664 3536 3600 65 30.788029954207 459.57849165185 15668.868443168 4814695.5209405
4923	21627900 1430 409314 416664 3536 3600 65 20.2 23.4 1373.8 29173.48
4924	21629330 2119 409314 416664 3536 3600 65 30.79176328156 952.40178688139 30547.571245355 19434919.340024
4925	21631449 1430 409314 416664 3536 3600 65 20.2 23.4 1444.2 32242.92
4926	21632879 2103 409321 416664 3537 3600 64 3.5005764378772 7.0172922687637 430.68665144226 2919.2438715235
4927	21634982 2107 409321 416664 3537 3600 64 3.8173569962415 15.356048495038 927.18569704722 13744.110172315
4928	21637089 2231 410114 416664 3538 3600 63 -0.49253150816715 2.0939707205514 3.491246121729 8.1463990471233
4929	21639320 2034 410114 416664 3538 3600 63 0.973 4.2193279443925 97.76099966381 169.17387646171
4930	21641354 2203 410114 416664 3538 3600 63 -1.6421649998875 2.0775196843874 9.8886330546742 29.864151900332
4931	21643557 2010 410114 416664 3538 3600 63 0.973 9.7954600965535 164.3136629675 617.98651800367
4932	21645567 1906 410119 416664 3543 3600 58 30.464148126718 967.15886003168 26568.863101902 17089396.383418
4933	21647473 1276 410119 416664 3543 3600 58 20.2 23.4 1325.2 30363.28
4934	21648749 1896 410119 416664 3543 3600 58 30.474921362673 993.18359139762 27837.836971563 18476766.760869
4935	21650645 1276 410119 416664 3543 3600 58 23.4 23.4 1357.2 31758.48
4936	21651921 1875 410126 416664 3544 3600 57 3.1358247859795 18.599414971383 944.04927896246 16357.712997622
4937	21653796 1877 410126 416664 3544 3600 57 3.3348258341649 18.297171533136 970.41767659521 17123.556075074
4938	21655673 1950 410895 416664 3545 3600 56 -1.4474083974072 2.1466148764431 15.083925626058 40.331689747439
4939	21657623 1807 410895 416664 3545 3600 56 0.973 11.583975829066 184.0354674092 876.70467676864
4940	21659430 1953 410895 416664 3545 3600 56 -0.48396516752181 2.1150881108898 14.935811265543 30.775168513526
4941	21661383 1815 410895 416664 3545 3600 56 0.973 10.776827039683 180.72799638187 814.25059378083
4942	21663198 1674 410900 416664 3550 3600 51 30.248904150519 891.5322927111 21292.297961327 12588390.660696
4943	21664872 1122 410900 416664 3550 3600 51 20.2 23.4 1151.8 26111.8
4944	21665994 1677 410900 416664 3550 3600 51 30.24880719941 918.80192389617 22345.887890133 13720379.019702
4945	21667671 1122 410900 416664 3550 3600 51 23.4 23.4 1193.4 27925.56
4946	21668793 1645 410907 416664 3551 3600 50 2.9938098556496 19.538834255675 869.05340018593 15924.672827734
4947	21670438 1646 410907 416664 3551 3600 50 2.8797654880214 19.526886296021 896.88962918907 16864.360243759
4948	21672084 1698 411676 416664 3552 3600 49 -2.3867312361996 2.0894345726748 16.475243080275 49.02206319084
4949	21673782 1582 411676 416664 3552 3600 49 0.973 11.291296727771 188.3021359593 1035.07385806
4950	21675364 1723 411676 416664 3552 3600 49 -0.10820156089962 2.0687467200751 16.538663834624 32.477779031759
4951	21677087 1610 411676 416664 3552 3600 49 2.2148771641062 11.623318633785 175.64596830103 847.12535308772
4952	21678697 1446 411681 416664 3557 3600 44 30.125114310131 415.7733609323 11046.693030508 3459096.6039188
4953	21680143 968 411681 416664 3557 3600 44 20.2 20.2 888.8 17953.76
4954	21681111 1447 411681 416664 3557 3600 44 30.125168844531 578.18233024037 12314.057376287 4547366.8259523
4955	21682558 968 411681 416664 3557 3600 44 20.2 23.4 1000.8 22836.96
4956	21683526 1415 411688 416664 3558 3600 43 2.4868723633377 18.097187115176 388.22707255196 4386.982167736
4957	21684941 1413 411688 416664 3558 3600 43 2.5629386767091 18.514714610552 556.13802063216 8250.9051884394
4958	21686354 1452 412521 416664 3559 3600 42 -2.2192567555309 2.333687451221 3.0928670913344 50.120295273988
4959	21687806 1253 412521 416664 3559 3600 42 0.973 10.932753317476 106.64821140883 554.99837398216
4960	21689059 1441 412521 416664 3559 3600 42 -2.0296576824547 2.1448062921385 15.889237355968 67.399085089542
4961	21690500 1252 412521 416664 3559 3600 42 0.973 10.956087755737 157.40796949528 1010.4725010072
4962	21691752 1185 412527 416664 3565 3600 36 31.171793775032 352.44987687555 6679.6185353921 1587924.2205998
4963	21692937 792 412527 416664 3565 3600 36 20.2 20.2 727.2 14689.44
4964	21693729 1183 412527 416664 3565 3600 36 31.162119437458 619.46681626437 10074.019618918 3864226.8262847
4965	21694912 792 412527 416664 3565 3600 36 23.4 23.4 842.4 19712.16
4966	21695704 1149 412534 416664 3566 3600 35 4.0070668840907 9.6430822985905 324.27109968659 3047.3583346387
4967	21696853 1154 412534 416664 3566 3600 35 3.821264027793 32.114254830054 602.07223077129 12227.475384614
4968	21698007 1198 413352 416664 3567 3600 34 -0.11344637029339 2.0539762361278 5.542873582395 10.657737388
4969	21699205 1119 413352 416664 3567 3600 34 1.3884095701673 5.5200577055217 66.187814446834 161.36244605872
4970	21700324 1133 413352 416664 3567 3600 34 -2.627704403681 2.1565990992962 28.278524509522 109.54183631288
4971	21701457 1029 413352 416664 3567 3600 34 0.973 20.796546519348 274.33231897279 3378.5819856775
4972	21702486 952 413357 416664 3572 3600 29 30.779219350092 450.48064750409 6230.9778017107 1856619.9189443
4973	21703438 638 413357 416664 3572 3600 29 20.2 23.4 640.2 14205
4974	21704076 955 413357 416664 3572 3600 29 30.780705190205 567.31350013539 7373.883329603 2716255.3730054
4975	21705031 638 413357 416664 3572 3600 29 23.4 23.4 678.6 15879.24
4976	21705669 923 413364 416664 3573 3600 28 3.6704216539729 17.641043974385 426.84744214253 6938.3894791301
4977	21706592 921 413364 416664 3573 3600 28 3.7908066763599 26.034117035312 547.57144388348 11882.581108992
4978	21707513 928 414115 416664 3574 3600 27 -1.4863184539641 2.0911034656339 13.956515964092 35.19574391308
4979	21708441 871 414115 416664 3574 3600 27 0.973 11.168717118136 108.46091247039 648.49669833185
4980	21709312 909 414115 416664 3574 3600 27 -2.1537933961967 2.1103926946386 22.198117991133 59.765882427634
4981	21710221 850 414115 416664 3574 3600 27 0.973 15.952157032326 191.9788512124 1857.9682113696
4982	21711071 725 414120 416664 3579 3600 22 30.463328122361 374.56872807513 3671.188244691 885128.88776236
4983	21711796 484 414120 416664 3579 3600 22 20.2 23.4 470 10093.04
4984	21712280 725 414120 416664 3579 3600 22 30.473815321297 400.61532408963 3874.4844073136 1004173.228184
4985	21713005 484 414120 416664 3579 3600 22 23.4 23.4 514.8 12046.32
4986	21713489 692 414127 416664 3580 3600 21 3.3430349291385 22.912839241892 352.91239014116 6756.0153635545
4987	21714181 691 414127 416664 3580 3600 21 3.2634442097441 24.383790020423 379.36037140378 7912.9652512528
4988	21714872 675 414982 416664 3581 3600 20 -0.81520663392987 2.1325613971707 18.225845445646 37.558459397336
4989	21715547 629 414982 416664 3581 3600 20 0.973 13.168177554778 115.31522448961 910.0235316528
4990	21716176 681 414982 416664 3581 3600 20 -0.99625440884424 2.0845864681271 18.882356876318 42.270636884751
4991	21716857 638 414982 416664 3581 3600 20 0.973 15.467436287865 125.02066979714 1135.3377858715
4992	21717495 493 414987 416664 3586 3600 15 30.249233641031 204.03112444785 1462.0096963291 191396.25255595
4993	21717988 330 414987 416664 3586 3600 15 20.2 20.2 303 6120.6
4994	21718318 495 414987 416664 3586 3600 15 30.247721921511 197.18370735456 1452.536819176 186566.65292114
4995	21718813 330 414987 416664 3586 3600 15 23.4 23.4 351 8213.4
4996	21719143 457 414994 416664 3587 3600 14 2.76806881529 18.005458705917 181.44888428083 2726.6143811874
4997	21719600 459 414994 416664 3587 3600 14 2.9456890387134 16.019681631618 173.60415137541 2439.6906032154
4998	21720059 438 415829 416664 3588 3600 13 0.005547815568935 2.1281295454712 15.237389890627 28.565891069001
4999	21720497 429 415829 416664 3588 3600 13 2.4759237835446 10.135861111582 68.672087359201 456.78155672983
5000	21720926 444 415829 416664 3588 3600 13 -0.075083113319705 2.1186753730965 13.058958491376 24.842574109255
5001	21721370 427 415829 416664 3588 3600 13 1.9651163579736 9.6495882565874 58.820698193409 346.880696208
5002	21721797 264 415834 416664 3593 3600 8 30.125034895384 81.957163534494 394.65485078386 21947.728861917
5003	21722061 176 415834 416664 3593 3600 8 20.2 20.2 161.6 3264.32
5004	21722237 262 415834 416664 3593 3600 8 30.125190132731 68.634772008517 369.04774770068 18461.940975725
5005	21722499 176 415834 416664 3593 3600 8 23.4 23.4 187.2 4380.48
5006	21722675 230 415841 416664 3594 3600 7 2.4568071141275 13.05940799944 57.340710918943 564.23371947445
5007	21722905 231 415841 416664 3594 3600 7 2.4172934599456 7.1549763386033 41.360773169068 265.27984970887
5008	21723136 197 416659 416664 3595 3600 6 0.762967271059 2.0842459091498 10.602600885312 19.996053887754
5009	21723333 197 416659 416664 3595 3600 6 3.4478243472919 7.9863081980273 32.104593619118 184.8271883814
5010	21723530 207 416659 416664 3595 3600 6 -0.061362536647357 1.9833554550633 4.6667209251746 8.1444880653622
5011	21723737 198 416659 416664 3595 3600 6 1.3802672142496 4.4110182962274 15.025610700853 45.457193763196

