version 2
run PeriodicAttack-0-20250519-16:08:05-485845
attr configname PeriodicAttack
attr datetime 20250519-16:08:05
attr experiment PeriodicAttack
attr inifile omnetpp.ini
attr iterationvars ""
attr iterationvarsf ""
attr measurement ""
attr network RSUExampleScenario3
attr processid 485845
attr repetition 0
attr replication #0
attr resultdir results
attr runnumber 0
attr seedset 0
param *.hacker[*].appl.attackPolicy 1
param *.hacker[*].appl.nDosMessages 3
param *.hacker[*].appl.attackInterval 3s
param *.hacker[*].appl.successProbability 0
param *.hacker[*].appl.beaconInterval 1s
param *.hacker[*].appl.speedAttackOffset "3 mps"
param *.playgroundSizeX 4000m
param *.playgroundSizeY 4000m
param *.playgroundSizeZ 50m
param *.annotations.draw true
param *.manager.updateInterval 1s
param *.manager.host "\"localhost\""
param *.manager.port 9999
param *.manager.autoShutdown true
param *.manager.launchConfig "xmldoc(\"lostest1.launchd.xml\")"
param *.connectionManager.sendDirect true
param *.connectionManager.maxInterfDist 2600m
param *.connectionManager.drawMaxIntfDist false
param *.**.nic.mac1609_4.useServiceChannel false
param *.node[*].nic.mac1609_4.txPower 20mW
param *.**.nic.mac1609_4.bitrate 6Mbps
param *.**.nic.phy80211p.minPowerLevel -110dBm
param *.**.nic.phy80211p.useNoiseFloor true
param *.**.nic.phy80211p.noiseFloor -98dBm
param *.**.nic.phy80211p.decider "xmldoc(\"config.xml\")"
param *.**.nic.phy80211p.analogueModels "xmldoc(\"config.xml\")"
param *.**.nic.phy80211p.usePropagationDelay true
param *.**.nic.phy80211p.antenna "xmldoc(\"antenna.xml\", \"/root/Antenna[@id='monopole']\")"
param *.node[*].nic.phy80211p.antennaOffsetY "0 m"
param *.node[*].nic.phy80211p.antennaOffsetZ "1.895 m"
param *.node[*].applType "\"MyVeinsApp\""
param *.node[*].appl.headerLength "80 bit"
param *.node[*].appl.sendBeacons true
param *.node[*].appl.dataOnSch false
param *.node[*].appl.beaconInterval 1s
param *.node[*].veinsmobility.x 0
param *.node[*].veinsmobility.y 0
param *.node[*].veinsmobility.z 0
param *.node[*].veinsmobility.setHostSpeed false
param *.manager.moduleType "\"hacker=org.car2x.veins.nodes.Car target=org.car2x.veins.nodes.Car *=org.car2x.veins.nodes.Car\""
param *.manager.moduleName "\"hacker=hacker target=target *=node\""
param *.target[*].applType "\"TargetApp\""
param *.target[*].appl.headerLength "80 bit"
param *.target[*].appl.sendBeacons false
param *.target[*].appl.dataOnSch false
param *.target[*].appl.beaconInterval 1s
param *.target[*].veinsmobility.x 0
param *.target[*].veinsmobility.y 0
param *.target[*].veinsmobility.z 0
param *.target[*].veinsmobility.setHostSpeed false
param *.target[*].nic.mac1609_4.txPower 20mW
param *.hacker[*].applType "\"AttackApp\""
param *.hacker[*].appl.headerLength "80 bit"
param *.hacker[*].appl.sendBeacons true
param *.hacker[*].appl.dataOnSch false
param *.hacker[*].veinsmobility.x 0
param *.hacker[*].veinsmobility.y 0
param *.hacker[*].veinsmobility.z 0
param *.hacker[*].veinsmobility.setHostSpeed false
param *.hacker[*].nic.mac1609_4.txPower 20mW
param *.hacker[*].appl.attack 2
param *.hacker[*].appl.attackInterval 0s

scalar RSUExampleScenario3.node[5].nic.phy80211p busyTime 0.00012174257425743
scalar RSUExampleScenario3.node[5].nic.mac1609_4 ReceivedUnicastPackets 0
scalar RSUExampleScenario3.node[5].nic.mac1609_4 ReceivedBroadcasts 7
scalar RSUExampleScenario3.node[5].nic.mac1609_4 SentPackets 2
scalar RSUExampleScenario3.node[5].nic.mac1609_4 SentAcknowledgements 0
scalar RSUExampleScenario3.node[5].nic.mac1609_4 RetriesExceeded 0
scalar RSUExampleScenario3.node[5].nic.mac1609_4 SNIRLostPackets 46
scalar RSUExampleScenario3.node[5].nic.mac1609_4 RXTXLostPackets 1
scalar RSUExampleScenario3.node[5].nic.mac1609_4 TotalLostPackets 47
scalar RSUExampleScenario3.node[5].nic.mac1609_4 DroppedPacketsInMac 0
scalar RSUExampleScenario3.node[5].nic.mac1609_4 TooLittleTime 0
scalar RSUExampleScenario3.node[5].nic.mac1609_4 TimesIntoBackoff 2
scalar RSUExampleScenario3.node[5].nic.mac1609_4 SlotsBackoff 1
scalar RSUExampleScenario3.node[5].nic.mac1609_4 NumInternalContention 0
scalar RSUExampleScenario3.node[5].nic.mac1609_4 totalBusyTime 0.008818010674
scalar RSUExampleScenario3.node[5].nic.mac1609_4 retriesExceeded:count 0
attr source org_car2x_veins_modules_mac_sigRetriesExceeded
scalar RSUExampleScenario3.node[5].nic.mac1609_4 sentAcks:count 0
attr source org_car2x_veins_modules_mac_sigSentAck
scalar RSUExampleScenario3.node[5].nic.mac1609_4 sentPackets:count 2
attr source org_car2x_veins_modules_mac_sigSentPacket
scalar RSUExampleScenario3.node[5].nic.mac1609_4 collisions:count 0
attr source org_car2x_veins_modules_mac_sigCollision
scalar RSUExampleScenario3.node[5].nic.mac1609_4 channelBusy:timeavg 8.7307036376238e-05
attr source org_car2x_veins_modules_mac_sigChannelBusy
scalar RSUExampleScenario3.node[5].veinsmobility startTime 15
scalar RSUExampleScenario3.node[5].veinsmobility totalTime 100
scalar RSUExampleScenario3.node[5].veinsmobility stopTime 116
scalar RSUExampleScenario3.node[5].veinsmobility minSpeed 3.1875806307177
scalar RSUExampleScenario3.node[5].veinsmobility maxSpeed 21.549021285217
scalar RSUExampleScenario3.node[5].veinsmobility totalDistance 1993.2908915013
scalar RSUExampleScenario3.node[5].veinsmobility totalCO2Emission 361.44406905798
scalar RSUExampleScenario3.node[9].nic.phy80211p busyTime 0.0001252389380531
scalar RSUExampleScenario3.node[9].nic.mac1609_4 ReceivedUnicastPackets 0
scalar RSUExampleScenario3.node[9].nic.mac1609_4 ReceivedBroadcasts 5
scalar RSUExampleScenario3.node[9].nic.mac1609_4 SentPackets 2
scalar RSUExampleScenario3.node[9].nic.mac1609_4 SentAcknowledgements 0
scalar RSUExampleScenario3.node[9].nic.mac1609_4 RetriesExceeded 0
scalar RSUExampleScenario3.node[9].nic.mac1609_4 SNIRLostPackets 56
scalar RSUExampleScenario3.node[9].nic.mac1609_4 RXTXLostPackets 1
scalar RSUExampleScenario3.node[9].nic.mac1609_4 TotalLostPackets 57
scalar RSUExampleScenario3.node[9].nic.mac1609_4 DroppedPacketsInMac 0
scalar RSUExampleScenario3.node[9].nic.mac1609_4 TooLittleTime 0
scalar RSUExampleScenario3.node[9].nic.mac1609_4 TimesIntoBackoff 2
scalar RSUExampleScenario3.node[9].nic.mac1609_4 SlotsBackoff 1
scalar RSUExampleScenario3.node[9].nic.mac1609_4 NumInternalContention 0
scalar RSUExampleScenario3.node[9].nic.mac1609_4 totalBusyTime 0.010442010676
scalar RSUExampleScenario3.node[9].nic.mac1609_4 retriesExceeded:count 0
attr source org_car2x_veins_modules_mac_sigRetriesExceeded
scalar RSUExampleScenario3.node[9].nic.mac1609_4 sentAcks:count 0
attr source org_car2x_veins_modules_mac_sigSentAck
scalar RSUExampleScenario3.node[9].nic.mac1609_4 sentPackets:count 2
attr source org_car2x_veins_modules_mac_sigSentPacket
scalar RSUExampleScenario3.node[9].nic.mac1609_4 collisions:count 0
attr source org_car2x_veins_modules_mac_sigCollision
scalar RSUExampleScenario3.node[9].nic.mac1609_4 channelBusy:timeavg 9.2407174123894e-05
attr source org_car2x_veins_modules_mac_sigChannelBusy
scalar RSUExampleScenario3.node[9].veinsmobility startTime 29
scalar RSUExampleScenario3.node[9].veinsmobility totalTime 112
scalar RSUExampleScenario3.node[9].veinsmobility stopTime 142
scalar RSUExampleScenario3.node[9].veinsmobility minSpeed 2.4186491995588
scalar RSUExampleScenario3.node[9].veinsmobility maxSpeed 19.399542336926
scalar RSUExampleScenario3.node[9].veinsmobility totalDistance 1975.5922096229
scalar RSUExampleScenario3.node[9].veinsmobility totalCO2Emission 329.98026864047
scalar RSUExampleScenario3.node[0].nic.phy80211p busyTime 0.00012580281690141
scalar RSUExampleScenario3.node[0].nic.mac1609_4 ReceivedUnicastPackets 0
scalar RSUExampleScenario3.node[0].nic.mac1609_4 ReceivedBroadcasts 10
scalar RSUExampleScenario3.node[0].nic.mac1609_4 SentPackets 2
scalar RSUExampleScenario3.node[0].nic.mac1609_4 SentAcknowledgements 0
scalar RSUExampleScenario3.node[0].nic.mac1609_4 RetriesExceeded 0
scalar RSUExampleScenario3.node[0].nic.mac1609_4 SNIRLostPackets 67
scalar RSUExampleScenario3.node[0].nic.mac1609_4 RXTXLostPackets 1
scalar RSUExampleScenario3.node[0].nic.mac1609_4 TotalLostPackets 68
scalar RSUExampleScenario3.node[0].nic.mac1609_4 DroppedPacketsInMac 0
scalar RSUExampleScenario3.node[0].nic.mac1609_4 TooLittleTime 0
scalar RSUExampleScenario3.node[0].nic.mac1609_4 TimesIntoBackoff 2
scalar RSUExampleScenario3.node[0].nic.mac1609_4 SlotsBackoff 1
scalar RSUExampleScenario3.node[0].nic.mac1609_4 NumInternalContention 0
scalar RSUExampleScenario3.node[0].nic.mac1609_4 totalBusyTime 0.012994010677
scalar RSUExampleScenario3.node[0].nic.mac1609_4 retriesExceeded:count 0
attr source org_car2x_veins_modules_mac_sigRetriesExceeded
scalar RSUExampleScenario3.node[0].nic.mac1609_4 sentAcks:count 0
attr source org_car2x_veins_modules_mac_sigSentAck
scalar RSUExampleScenario3.node[0].nic.mac1609_4 sentPackets:count 2
attr source org_car2x_veins_modules_mac_sigSentPacket
scalar RSUExampleScenario3.node[0].nic.mac1609_4 collisions:count 0
attr source org_car2x_veins_modules_mac_sigCollision
scalar RSUExampleScenario3.node[0].nic.mac1609_4 channelBusy:timeavg 9.1507117443662e-05
attr source org_car2x_veins_modules_mac_sigChannelBusy
scalar RSUExampleScenario3.node[0].veinsmobility startTime 1
scalar RSUExampleScenario3.node[0].veinsmobility totalTime 141
scalar RSUExampleScenario3.node[0].veinsmobility stopTime 143
scalar RSUExampleScenario3.node[0].veinsmobility minSpeed 4.0758362758249
scalar RSUExampleScenario3.node[0].veinsmobility maxSpeed 14.412814117988
scalar RSUExampleScenario3.node[0].veinsmobility totalDistance 1985.6443283118
scalar RSUExampleScenario3.node[0].veinsmobility totalCO2Emission 313.78407237606
scalar RSUExampleScenario3.node[2].nic.phy80211p busyTime 0.00012452941176471
scalar RSUExampleScenario3.node[2].nic.mac1609_4 ReceivedUnicastPackets 0
scalar RSUExampleScenario3.node[2].nic.mac1609_4 ReceivedBroadcasts 9
scalar RSUExampleScenario3.node[2].nic.mac1609_4 SentPackets 2
scalar RSUExampleScenario3.node[2].nic.mac1609_4 SentAcknowledgements 0
scalar RSUExampleScenario3.node[2].nic.mac1609_4 RetriesExceeded 0
scalar RSUExampleScenario3.node[2].nic.mac1609_4 SNIRLostPackets 64
scalar RSUExampleScenario3.node[2].nic.mac1609_4 RXTXLostPackets 1
scalar RSUExampleScenario3.node[2].nic.mac1609_4 TotalLostPackets 65
scalar RSUExampleScenario3.node[2].nic.mac1609_4 DroppedPacketsInMac 0
scalar RSUExampleScenario3.node[2].nic.mac1609_4 TooLittleTime 0
scalar RSUExampleScenario3.node[2].nic.mac1609_4 TimesIntoBackoff 2
scalar RSUExampleScenario3.node[2].nic.mac1609_4 SlotsBackoff 4
scalar RSUExampleScenario3.node[2].nic.mac1609_4 NumInternalContention 0
scalar RSUExampleScenario3.node[2].nic.mac1609_4 totalBusyTime 0.012298010674
scalar RSUExampleScenario3.node[2].nic.mac1609_4 retriesExceeded:count 0
attr source org_car2x_veins_modules_mac_sigRetriesExceeded
scalar RSUExampleScenario3.node[2].nic.mac1609_4 sentAcks:count 0
attr source org_car2x_veins_modules_mac_sigSentAck
scalar RSUExampleScenario3.node[2].nic.mac1609_4 sentPackets:count 2
attr source org_car2x_veins_modules_mac_sigSentPacket
scalar RSUExampleScenario3.node[2].nic.mac1609_4 collisions:count 0
attr source org_car2x_veins_modules_mac_sigCollision
scalar RSUExampleScenario3.node[2].nic.mac1609_4 channelBusy:timeavg 9.0426549073529e-05
attr source org_car2x_veins_modules_mac_sigChannelBusy
scalar RSUExampleScenario3.node[2].veinsmobility startTime 8
scalar RSUExampleScenario3.node[2].veinsmobility totalTime 135
scalar RSUExampleScenario3.node[2].veinsmobility stopTime 144
scalar RSUExampleScenario3.node[2].veinsmobility minSpeed 3.6534798337513
scalar RSUExampleScenario3.node[2].veinsmobility maxSpeed 17.09125942168
scalar RSUExampleScenario3.node[2].veinsmobility totalDistance 1991.9485669122
scalar RSUExampleScenario3.node[2].veinsmobility totalCO2Emission 340.0510987535
scalar RSUExampleScenario3.node[7].nic.phy80211p busyTime 0.000126208
scalar RSUExampleScenario3.node[7].nic.mac1609_4 ReceivedUnicastPackets 0
scalar RSUExampleScenario3.node[7].nic.mac1609_4 ReceivedBroadcasts 6
scalar RSUExampleScenario3.node[7].nic.mac1609_4 SentPackets 2
scalar RSUExampleScenario3.node[7].nic.mac1609_4 SentAcknowledgements 0
scalar RSUExampleScenario3.node[7].nic.mac1609_4 RetriesExceeded 0
scalar RSUExampleScenario3.node[7].nic.mac1609_4 SNIRLostPackets 62
scalar RSUExampleScenario3.node[7].nic.mac1609_4 RXTXLostPackets 2
scalar RSUExampleScenario3.node[7].nic.mac1609_4 TotalLostPackets 64
scalar RSUExampleScenario3.node[7].nic.mac1609_4 DroppedPacketsInMac 0
scalar RSUExampleScenario3.node[7].nic.mac1609_4 TooLittleTime 0
scalar RSUExampleScenario3.node[7].nic.mac1609_4 TimesIntoBackoff 2
scalar RSUExampleScenario3.node[7].nic.mac1609_4 SlotsBackoff 3
scalar RSUExampleScenario3.node[7].nic.mac1609_4 NumInternalContention 0
scalar RSUExampleScenario3.node[7].nic.mac1609_4 totalBusyTime 0.011602021352
scalar RSUExampleScenario3.node[7].nic.mac1609_4 retriesExceeded:count 0
attr source org_car2x_veins_modules_mac_sigRetriesExceeded
scalar RSUExampleScenario3.node[7].nic.mac1609_4 sentAcks:count 0
attr source org_car2x_veins_modules_mac_sigSentAck
scalar RSUExampleScenario3.node[7].nic.mac1609_4 sentPackets:count 2
attr source org_car2x_veins_modules_mac_sigSentPacket
scalar RSUExampleScenario3.node[7].nic.mac1609_4 collisions:count 0
attr source org_car2x_veins_modules_mac_sigCollision
scalar RSUExampleScenario3.node[7].nic.mac1609_4 channelBusy:timeavg 9.2816170816e-05
attr source org_car2x_veins_modules_mac_sigChannelBusy
scalar RSUExampleScenario3.node[7].veinsmobility startTime 22
scalar RSUExampleScenario3.node[7].veinsmobility totalTime 124
scalar RSUExampleScenario3.node[7].veinsmobility stopTime 147
scalar RSUExampleScenario3.node[7].veinsmobility minSpeed 2.940235865474
scalar RSUExampleScenario3.node[7].veinsmobility maxSpeed 16.576814799403
scalar RSUExampleScenario3.node[7].veinsmobility totalDistance 1985.7034709391
scalar RSUExampleScenario3.node[7].veinsmobility totalCO2Emission 316.56977549134
scalar RSUExampleScenario3.node[6].nic.phy80211p busyTime 0.00012422047244094
scalar RSUExampleScenario3.node[6].nic.mac1609_4 ReceivedUnicastPackets 0
scalar RSUExampleScenario3.node[6].nic.mac1609_4 ReceivedBroadcasts 6
scalar RSUExampleScenario3.node[6].nic.mac1609_4 SentPackets 2
scalar RSUExampleScenario3.node[6].nic.mac1609_4 SentAcknowledgements 0
scalar RSUExampleScenario3.node[6].nic.mac1609_4 RetriesExceeded 0
scalar RSUExampleScenario3.node[6].nic.mac1609_4 SNIRLostPackets 62
scalar RSUExampleScenario3.node[6].nic.mac1609_4 RXTXLostPackets 2
scalar RSUExampleScenario3.node[6].nic.mac1609_4 TotalLostPackets 64
scalar RSUExampleScenario3.node[6].nic.mac1609_4 DroppedPacketsInMac 0
scalar RSUExampleScenario3.node[6].nic.mac1609_4 TooLittleTime 0
scalar RSUExampleScenario3.node[6].nic.mac1609_4 TimesIntoBackoff 2
scalar RSUExampleScenario3.node[6].nic.mac1609_4 SlotsBackoff 3
scalar RSUExampleScenario3.node[6].nic.mac1609_4 NumInternalContention 0
scalar RSUExampleScenario3.node[6].nic.mac1609_4 totalBusyTime 0.011602021352
scalar RSUExampleScenario3.node[6].nic.mac1609_4 retriesExceeded:count 0
attr source org_car2x_veins_modules_mac_sigRetriesExceeded
scalar RSUExampleScenario3.node[6].nic.mac1609_4 sentAcks:count 0
attr source org_car2x_veins_modules_mac_sigSentAck
scalar RSUExampleScenario3.node[6].nic.mac1609_4 sentPackets:count 2
attr source org_car2x_veins_modules_mac_sigSentPacket
scalar RSUExampleScenario3.node[6].nic.mac1609_4 collisions:count 0
attr source org_car2x_veins_modules_mac_sigCollision
scalar RSUExampleScenario3.node[6].nic.mac1609_4 channelBusy:timeavg 9.1354498834646e-05
attr source org_car2x_veins_modules_mac_sigChannelBusy
scalar RSUExampleScenario3.node[6].veinsmobility startTime 22
scalar RSUExampleScenario3.node[6].veinsmobility totalTime 126
scalar RSUExampleScenario3.node[6].veinsmobility stopTime 149
scalar RSUExampleScenario3.node[6].veinsmobility minSpeed 2.8319868129561
scalar RSUExampleScenario3.node[6].veinsmobility maxSpeed 16.419056352821
scalar RSUExampleScenario3.node[6].veinsmobility totalDistance 1980.4497859044
scalar RSUExampleScenario3.node[6].veinsmobility totalCO2Emission 332.30615258062
scalar RSUExampleScenario3.node[14].nic.phy80211p busyTime 0.0001261359223301
scalar RSUExampleScenario3.node[14].nic.mac1609_4 ReceivedUnicastPackets 0
scalar RSUExampleScenario3.node[14].nic.mac1609_4 ReceivedBroadcasts 4
scalar RSUExampleScenario3.node[14].nic.mac1609_4 SentPackets 2
scalar RSUExampleScenario3.node[14].nic.mac1609_4 SentAcknowledgements 0
scalar RSUExampleScenario3.node[14].nic.mac1609_4 RetriesExceeded 0
scalar RSUExampleScenario3.node[14].nic.mac1609_4 SNIRLostPackets 52
scalar RSUExampleScenario3.node[14].nic.mac1609_4 RXTXLostPackets 2
scalar RSUExampleScenario3.node[14].nic.mac1609_4 TotalLostPackets 54
scalar RSUExampleScenario3.node[14].nic.mac1609_4 DroppedPacketsInMac 0
scalar RSUExampleScenario3.node[14].nic.mac1609_4 TooLittleTime 0
scalar RSUExampleScenario3.node[14].nic.mac1609_4 TimesIntoBackoff 2
scalar RSUExampleScenario3.node[14].nic.mac1609_4 SlotsBackoff 4
scalar RSUExampleScenario3.node[14].nic.mac1609_4 NumInternalContention 0
scalar RSUExampleScenario3.node[14].nic.mac1609_4 totalBusyTime 0.00974602135
scalar RSUExampleScenario3.node[14].nic.mac1609_4 retriesExceeded:count 0
attr source org_car2x_veins_modules_mac_sigRetriesExceeded
scalar RSUExampleScenario3.node[14].nic.mac1609_4 sentAcks:count 0
attr source org_car2x_veins_modules_mac_sigSentAck
scalar RSUExampleScenario3.node[14].nic.mac1609_4 sentPackets:count 2
attr source org_car2x_veins_modules_mac_sigSentPacket
scalar RSUExampleScenario3.node[14].nic.mac1609_4 collisions:count 0
attr source org_car2x_veins_modules_mac_sigCollision
scalar RSUExampleScenario3.node[14].nic.mac1609_4 channelBusy:timeavg 9.4621566504854e-05
attr source org_car2x_veins_modules_mac_sigChannelBusy
scalar RSUExampleScenario3.node[14].veinsmobility startTime 51
scalar RSUExampleScenario3.node[14].veinsmobility totalTime 102
scalar RSUExampleScenario3.node[14].veinsmobility stopTime 154
scalar RSUExampleScenario3.node[14].veinsmobility minSpeed 3.2963758494302
scalar RSUExampleScenario3.node[14].veinsmobility maxSpeed 22.769481845995
scalar RSUExampleScenario3.node[14].veinsmobility totalDistance 1988.7040435635
scalar RSUExampleScenario3.node[14].veinsmobility totalCO2Emission 366.246387906
scalar RSUExampleScenario3.node[16].nic.phy80211p busyTime 0.00012437113402062
scalar RSUExampleScenario3.node[16].nic.mac1609_4 ReceivedUnicastPackets 0
scalar RSUExampleScenario3.node[16].nic.mac1609_4 ReceivedBroadcasts 4
scalar RSUExampleScenario3.node[16].nic.mac1609_4 SentPackets 2
scalar RSUExampleScenario3.node[16].nic.mac1609_4 SentAcknowledgements 0
scalar RSUExampleScenario3.node[16].nic.mac1609_4 RetriesExceeded 0
scalar RSUExampleScenario3.node[16].nic.mac1609_4 SNIRLostPackets 48
scalar RSUExampleScenario3.node[16].nic.mac1609_4 RXTXLostPackets 2
scalar RSUExampleScenario3.node[16].nic.mac1609_4 TotalLostPackets 50
scalar RSUExampleScenario3.node[16].nic.mac1609_4 DroppedPacketsInMac 0
scalar RSUExampleScenario3.node[16].nic.mac1609_4 TooLittleTime 0
scalar RSUExampleScenario3.node[16].nic.mac1609_4 TimesIntoBackoff 2
scalar RSUExampleScenario3.node[16].nic.mac1609_4 SlotsBackoff 3
scalar RSUExampleScenario3.node[16].nic.mac1609_4 NumInternalContention 0
scalar RSUExampleScenario3.node[16].nic.mac1609_4 totalBusyTime 0.009282021348
scalar RSUExampleScenario3.node[16].nic.mac1609_4 retriesExceeded:count 0
attr source org_car2x_veins_modules_mac_sigRetriesExceeded
scalar RSUExampleScenario3.node[16].nic.mac1609_4 sentAcks:count 0
attr source org_car2x_veins_modules_mac_sigSentAck
scalar RSUExampleScenario3.node[16].nic.mac1609_4 sentPackets:count 2
attr source org_car2x_veins_modules_mac_sigSentPacket
scalar RSUExampleScenario3.node[16].nic.mac1609_4 collisions:count 0
attr source org_car2x_veins_modules_mac_sigCollision
scalar RSUExampleScenario3.node[16].nic.mac1609_4 channelBusy:timeavg 9.5690941731959e-05
attr source org_car2x_veins_modules_mac_sigChannelBusy
scalar RSUExampleScenario3.node[16].veinsmobility startTime 58
scalar RSUExampleScenario3.node[16].veinsmobility totalTime 96
scalar RSUExampleScenario3.node[16].veinsmobility stopTime 155
scalar RSUExampleScenario3.node[16].veinsmobility minSpeed 2.8581947380097
scalar RSUExampleScenario3.node[16].veinsmobility maxSpeed 31.423648599068
scalar RSUExampleScenario3.node[16].veinsmobility totalDistance 1981.3617360059
scalar RSUExampleScenario3.node[16].veinsmobility totalCO2Emission 398.2389070912
scalar RSUExampleScenario3.node[15].nic.phy80211p busyTime 0.00012373333333333
scalar RSUExampleScenario3.node[15].nic.mac1609_4 ReceivedUnicastPackets 0
scalar RSUExampleScenario3.node[15].nic.mac1609_4 ReceivedBroadcasts 4
scalar RSUExampleScenario3.node[15].nic.mac1609_4 SentPackets 2
scalar RSUExampleScenario3.node[15].nic.mac1609_4 SentAcknowledgements 0
scalar RSUExampleScenario3.node[15].nic.mac1609_4 RetriesExceeded 0
scalar RSUExampleScenario3.node[15].nic.mac1609_4 SNIRLostPackets 52
scalar RSUExampleScenario3.node[15].nic.mac1609_4 RXTXLostPackets 2
scalar RSUExampleScenario3.node[15].nic.mac1609_4 TotalLostPackets 54
scalar RSUExampleScenario3.node[15].nic.mac1609_4 DroppedPacketsInMac 0
scalar RSUExampleScenario3.node[15].nic.mac1609_4 TooLittleTime 0
scalar RSUExampleScenario3.node[15].nic.mac1609_4 TimesIntoBackoff 2
scalar RSUExampleScenario3.node[15].nic.mac1609_4 SlotsBackoff 3
scalar RSUExampleScenario3.node[15].nic.mac1609_4 NumInternalContention 0
scalar RSUExampleScenario3.node[15].nic.mac1609_4 totalBusyTime 0.00974602135
scalar RSUExampleScenario3.node[15].nic.mac1609_4 retriesExceeded:count 0
attr source org_car2x_veins_modules_mac_sigRetriesExceeded
scalar RSUExampleScenario3.node[15].nic.mac1609_4 sentAcks:count 0
attr source org_car2x_veins_modules_mac_sigSentAck
scalar RSUExampleScenario3.node[15].nic.mac1609_4 sentPackets:count 2
attr source org_car2x_veins_modules_mac_sigSentPacket
scalar RSUExampleScenario3.node[15].nic.mac1609_4 collisions:count 0
attr source org_car2x_veins_modules_mac_sigCollision
scalar RSUExampleScenario3.node[15].nic.mac1609_4 channelBusy:timeavg 9.2819250952381e-05
attr source org_car2x_veins_modules_mac_sigChannelBusy
scalar RSUExampleScenario3.node[15].veinsmobility startTime 51
scalar RSUExampleScenario3.node[15].veinsmobility totalTime 104
scalar RSUExampleScenario3.node[15].veinsmobility stopTime 156
scalar RSUExampleScenario3.node[15].veinsmobility minSpeed 3.3671864216823
scalar RSUExampleScenario3.node[15].veinsmobility maxSpeed 21.298382838779
scalar RSUExampleScenario3.node[15].veinsmobility totalDistance 1977.7184014647
scalar RSUExampleScenario3.node[15].veinsmobility totalCO2Emission 361.59503493422
scalar RSUExampleScenario3.node[4].nic.phy80211p busyTime 0.00012492307692308
scalar RSUExampleScenario3.node[4].nic.mac1609_4 ReceivedUnicastPackets 0
scalar RSUExampleScenario3.node[4].nic.mac1609_4 ReceivedBroadcasts 7
scalar RSUExampleScenario3.node[4].nic.mac1609_4 SentPackets 2
scalar RSUExampleScenario3.node[4].nic.mac1609_4 SentAcknowledgements 0
scalar RSUExampleScenario3.node[4].nic.mac1609_4 RetriesExceeded 0
scalar RSUExampleScenario3.node[4].nic.mac1609_4 SNIRLostPackets 70
scalar RSUExampleScenario3.node[4].nic.mac1609_4 RXTXLostPackets 1
scalar RSUExampleScenario3.node[4].nic.mac1609_4 TotalLostPackets 71
scalar RSUExampleScenario3.node[4].nic.mac1609_4 DroppedPacketsInMac 0
scalar RSUExampleScenario3.node[4].nic.mac1609_4 TooLittleTime 0
scalar RSUExampleScenario3.node[4].nic.mac1609_4 TimesIntoBackoff 2
scalar RSUExampleScenario3.node[4].nic.mac1609_4 SlotsBackoff 4
scalar RSUExampleScenario3.node[4].nic.mac1609_4 NumInternalContention 0
scalar RSUExampleScenario3.node[4].nic.mac1609_4 totalBusyTime 0.012994010674
scalar RSUExampleScenario3.node[4].nic.mac1609_4 retriesExceeded:count 0
attr source org_car2x_veins_modules_mac_sigRetriesExceeded
scalar RSUExampleScenario3.node[4].nic.mac1609_4 sentAcks:count 0
attr source org_car2x_veins_modules_mac_sigSentAck
scalar RSUExampleScenario3.node[4].nic.mac1609_4 sentPackets:count 2
attr source org_car2x_veins_modules_mac_sigSentPacket
scalar RSUExampleScenario3.node[4].nic.mac1609_4 collisions:count 0
attr source org_car2x_veins_modules_mac_sigCollision
scalar RSUExampleScenario3.node[4].nic.mac1609_4 channelBusy:timeavg 9.0867207510489e-05
attr source org_car2x_veins_modules_mac_sigChannelBusy
scalar RSUExampleScenario3.node[4].veinsmobility startTime 15
scalar RSUExampleScenario3.node[4].veinsmobility totalTime 142
scalar RSUExampleScenario3.node[4].veinsmobility stopTime 158
scalar RSUExampleScenario3.node[4].veinsmobility minSpeed 3.2252973315125
scalar RSUExampleScenario3.node[4].veinsmobility maxSpeed 14.504077894434
scalar RSUExampleScenario3.node[4].veinsmobility totalDistance 1993.7474939792
scalar RSUExampleScenario3.node[4].veinsmobility totalCO2Emission 327.18343946122
scalar RSUExampleScenario3.node[12].nic.phy80211p busyTime 0.000122
scalar RSUExampleScenario3.node[12].nic.mac1609_4 ReceivedUnicastPackets 0
scalar RSUExampleScenario3.node[12].nic.mac1609_4 ReceivedBroadcasts 5
scalar RSUExampleScenario3.node[12].nic.mac1609_4 SentPackets 2
scalar RSUExampleScenario3.node[12].nic.mac1609_4 SentAcknowledgements 0
scalar RSUExampleScenario3.node[12].nic.mac1609_4 RetriesExceeded 0
scalar RSUExampleScenario3.node[12].nic.mac1609_4 SNIRLostPackets 56
scalar RSUExampleScenario3.node[12].nic.mac1609_4 RXTXLostPackets 1
scalar RSUExampleScenario3.node[12].nic.mac1609_4 TotalLostPackets 57
scalar RSUExampleScenario3.node[12].nic.mac1609_4 DroppedPacketsInMac 0
scalar RSUExampleScenario3.node[12].nic.mac1609_4 TooLittleTime 0
scalar RSUExampleScenario3.node[12].nic.mac1609_4 TimesIntoBackoff 2
scalar RSUExampleScenario3.node[12].nic.mac1609_4 SlotsBackoff 3
scalar RSUExampleScenario3.node[12].nic.mac1609_4 NumInternalContention 0
scalar RSUExampleScenario3.node[12].nic.mac1609_4 totalBusyTime 0.010442010674
scalar RSUExampleScenario3.node[12].nic.mac1609_4 retriesExceeded:count 0
attr source org_car2x_veins_modules_mac_sigRetriesExceeded
scalar RSUExampleScenario3.node[12].nic.mac1609_4 sentAcks:count 0
attr source org_car2x_veins_modules_mac_sigSentAck
scalar RSUExampleScenario3.node[12].nic.mac1609_4 sentPackets:count 2
attr source org_car2x_veins_modules_mac_sigSentPacket
scalar RSUExampleScenario3.node[12].nic.mac1609_4 collisions:count 0
attr source org_car2x_veins_modules_mac_sigCollision
scalar RSUExampleScenario3.node[12].nic.mac1609_4 channelBusy:timeavg 9.0017333396552e-05
attr source org_car2x_veins_modules_mac_sigChannelBusy
scalar RSUExampleScenario3.node[12].veinsmobility startTime 44
scalar RSUExampleScenario3.node[12].veinsmobility totalTime 115
scalar RSUExampleScenario3.node[12].veinsmobility stopTime 160
scalar RSUExampleScenario3.node[12].veinsmobility minSpeed 3.7070186377598
scalar RSUExampleScenario3.node[12].veinsmobility maxSpeed 18.25790817746
scalar RSUExampleScenario3.node[12].veinsmobility totalDistance 1983.6145804107
scalar RSUExampleScenario3.node[12].veinsmobility totalCO2Emission 335.26090285769
scalar RSUExampleScenario3.node[11].nic.phy80211p busyTime 0.00012669503546099
scalar RSUExampleScenario3.node[11].nic.mac1609_4 ReceivedUnicastPackets 0
scalar RSUExampleScenario3.node[11].nic.mac1609_4 ReceivedBroadcasts 5
scalar RSUExampleScenario3.node[11].nic.mac1609_4 SentPackets 2
scalar RSUExampleScenario3.node[11].nic.mac1609_4 SentAcknowledgements 0
scalar RSUExampleScenario3.node[11].nic.mac1609_4 RetriesExceeded 0
scalar RSUExampleScenario3.node[11].nic.mac1609_4 SNIRLostPackets 72
scalar RSUExampleScenario3.node[11].nic.mac1609_4 RXTXLostPackets 1
scalar RSUExampleScenario3.node[11].nic.mac1609_4 TotalLostPackets 73
scalar RSUExampleScenario3.node[11].nic.mac1609_4 DroppedPacketsInMac 0
scalar RSUExampleScenario3.node[11].nic.mac1609_4 TooLittleTime 0
scalar RSUExampleScenario3.node[11].nic.mac1609_4 TimesIntoBackoff 2
scalar RSUExampleScenario3.node[11].nic.mac1609_4 SlotsBackoff 0
scalar RSUExampleScenario3.node[11].nic.mac1609_4 NumInternalContention 0
scalar RSUExampleScenario3.node[11].nic.mac1609_4 totalBusyTime 0.012994010674
scalar RSUExampleScenario3.node[11].nic.mac1609_4 retriesExceeded:count 0
attr source org_car2x_veins_modules_mac_sigRetriesExceeded
scalar RSUExampleScenario3.node[11].nic.mac1609_4 sentAcks:count 0
attr source org_car2x_veins_modules_mac_sigSentAck
scalar RSUExampleScenario3.node[11].nic.mac1609_4 sentPackets:count 2
attr source org_car2x_veins_modules_mac_sigSentPacket
scalar RSUExampleScenario3.node[11].nic.mac1609_4 collisions:count 0
attr source org_car2x_veins_modules_mac_sigCollision
scalar RSUExampleScenario3.node[11].nic.mac1609_4 channelBusy:timeavg 9.2156104070922e-05
attr source org_car2x_veins_modules_mac_sigChannelBusy
scalar RSUExampleScenario3.node[11].veinsmobility startTime 37
scalar RSUExampleScenario3.node[11].veinsmobility totalTime 140
scalar RSUExampleScenario3.node[11].veinsmobility stopTime 178
scalar RSUExampleScenario3.node[11].veinsmobility minSpeed 3.9813453312037
scalar RSUExampleScenario3.node[11].veinsmobility maxSpeed 15.162680900803
scalar RSUExampleScenario3.node[11].veinsmobility totalDistance 1979.9836894521
scalar RSUExampleScenario3.node[11].veinsmobility totalCO2Emission 322.61613076973
scalar RSUExampleScenario3.node[10].nic.phy80211p busyTime 0.00012580281690141
scalar RSUExampleScenario3.node[10].nic.mac1609_4 ReceivedUnicastPackets 0
scalar RSUExampleScenario3.node[10].nic.mac1609_4 ReceivedBroadcasts 5
scalar RSUExampleScenario3.node[10].nic.mac1609_4 SentPackets 2
scalar RSUExampleScenario3.node[10].nic.mac1609_4 SentAcknowledgements 0
scalar RSUExampleScenario3.node[10].nic.mac1609_4 RetriesExceeded 0
scalar RSUExampleScenario3.node[10].nic.mac1609_4 SNIRLostPackets 72
scalar RSUExampleScenario3.node[10].nic.mac1609_4 RXTXLostPackets 1
scalar RSUExampleScenario3.node[10].nic.mac1609_4 TotalLostPackets 73
scalar RSUExampleScenario3.node[10].nic.mac1609_4 DroppedPacketsInMac 0
scalar RSUExampleScenario3.node[10].nic.mac1609_4 TooLittleTime 0
scalar RSUExampleScenario3.node[10].nic.mac1609_4 TimesIntoBackoff 2
scalar RSUExampleScenario3.node[10].nic.mac1609_4 SlotsBackoff 5
scalar RSUExampleScenario3.node[10].nic.mac1609_4 NumInternalContention 0
scalar RSUExampleScenario3.node[10].nic.mac1609_4 totalBusyTime 0.012994010674
scalar RSUExampleScenario3.node[10].nic.mac1609_4 retriesExceeded:count 0
attr source org_car2x_veins_modules_mac_sigRetriesExceeded
scalar RSUExampleScenario3.node[10].nic.mac1609_4 sentAcks:count 0
attr source org_car2x_veins_modules_mac_sigSentAck
scalar RSUExampleScenario3.node[10].nic.mac1609_4 sentPackets:count 2
attr source org_car2x_veins_modules_mac_sigSentPacket
scalar RSUExampleScenario3.node[10].nic.mac1609_4 collisions:count 0
attr source org_car2x_veins_modules_mac_sigCollision
scalar RSUExampleScenario3.node[10].nic.mac1609_4 channelBusy:timeavg 9.1507117422535e-05
attr source org_car2x_veins_modules_mac_sigChannelBusy
scalar RSUExampleScenario3.node[10].veinsmobility startTime 37
scalar RSUExampleScenario3.node[10].veinsmobility totalTime 141
scalar RSUExampleScenario3.node[10].veinsmobility stopTime 179
scalar RSUExampleScenario3.node[10].veinsmobility minSpeed 4.0645482806349
scalar RSUExampleScenario3.node[10].veinsmobility maxSpeed 14.544307119894
scalar RSUExampleScenario3.node[10].veinsmobility totalDistance 1982.2948316415
scalar RSUExampleScenario3.node[10].veinsmobility totalCO2Emission 327.57915385442
scalar RSUExampleScenario3.node[18].nic.phy80211p busyTime 0.00012306086956522
scalar RSUExampleScenario3.node[18].nic.mac1609_4 ReceivedUnicastPackets 0
scalar RSUExampleScenario3.node[18].nic.mac1609_4 ReceivedBroadcasts 8
scalar RSUExampleScenario3.node[18].nic.mac1609_4 SentPackets 2
scalar RSUExampleScenario3.node[18].nic.mac1609_4 SentAcknowledgements 0
scalar RSUExampleScenario3.node[18].nic.mac1609_4 RetriesExceeded 0
scalar RSUExampleScenario3.node[18].nic.mac1609_4 SNIRLostPackets 53
scalar RSUExampleScenario3.node[18].nic.mac1609_4 RXTXLostPackets 1
scalar RSUExampleScenario3.node[18].nic.mac1609_4 TotalLostPackets 54
scalar RSUExampleScenario3.node[18].nic.mac1609_4 DroppedPacketsInMac 0
scalar RSUExampleScenario3.node[18].nic.mac1609_4 TooLittleTime 0
scalar RSUExampleScenario3.node[18].nic.mac1609_4 TimesIntoBackoff 2
scalar RSUExampleScenario3.node[18].nic.mac1609_4 SlotsBackoff 4
scalar RSUExampleScenario3.node[18].nic.mac1609_4 NumInternalContention 0
scalar RSUExampleScenario3.node[18].nic.mac1609_4 totalBusyTime 0.010674010676
scalar RSUExampleScenario3.node[18].nic.mac1609_4 retriesExceeded:count 0
attr source org_car2x_veins_modules_mac_sigRetriesExceeded
scalar RSUExampleScenario3.node[18].nic.mac1609_4 sentAcks:count 0
attr source org_car2x_veins_modules_mac_sigSentAck
scalar RSUExampleScenario3.node[18].nic.mac1609_4 sentPackets:count 2
attr source org_car2x_veins_modules_mac_sigSentPacket
scalar RSUExampleScenario3.node[18].nic.mac1609_4 collisions:count 0
attr source org_car2x_veins_modules_mac_sigCollision
scalar RSUExampleScenario3.node[18].nic.mac1609_4 channelBusy:timeavg 9.281748413913e-05
attr source org_car2x_veins_modules_mac_sigChannelBusy
scalar RSUExampleScenario3.node[18].veinsmobility startTime 65
scalar RSUExampleScenario3.node[18].veinsmobility totalTime 114
scalar RSUExampleScenario3.node[18].veinsmobility stopTime 180
scalar RSUExampleScenario3.node[18].veinsmobility minSpeed 2.3902655561592
scalar RSUExampleScenario3.node[18].veinsmobility maxSpeed 32.167913236931
scalar RSUExampleScenario3.node[18].veinsmobility totalDistance 1989.0074328762
scalar RSUExampleScenario3.node[18].veinsmobility totalCO2Emission 401.82878816804
scalar RSUExampleScenario3.node[21].nic.phy80211p busyTime 0.0001202962962963
scalar RSUExampleScenario3.node[21].nic.mac1609_4 ReceivedUnicastPackets 0
scalar RSUExampleScenario3.node[21].nic.mac1609_4 ReceivedBroadcasts 8
scalar RSUExampleScenario3.node[21].nic.mac1609_4 SentPackets 2
scalar RSUExampleScenario3.node[21].nic.mac1609_4 SentAcknowledgements 0
scalar RSUExampleScenario3.node[21].nic.mac1609_4 RetriesExceeded 0
scalar RSUExampleScenario3.node[21].nic.mac1609_4 SNIRLostPackets 48
scalar RSUExampleScenario3.node[21].nic.mac1609_4 RXTXLostPackets 2
scalar RSUExampleScenario3.node[21].nic.mac1609_4 TotalLostPackets 50
scalar RSUExampleScenario3.node[21].nic.mac1609_4 DroppedPacketsInMac 0
scalar RSUExampleScenario3.node[21].nic.mac1609_4 TooLittleTime 0
scalar RSUExampleScenario3.node[21].nic.mac1609_4 TimesIntoBackoff 2
scalar RSUExampleScenario3.node[21].nic.mac1609_4 SlotsBackoff 0
scalar RSUExampleScenario3.node[21].nic.mac1609_4 NumInternalContention 0
scalar RSUExampleScenario3.node[21].nic.mac1609_4 totalBusyTime 0.00997802135
scalar RSUExampleScenario3.node[21].nic.mac1609_4 retriesExceeded:count 0
attr source org_car2x_veins_modules_mac_sigRetriesExceeded
scalar RSUExampleScenario3.node[21].nic.mac1609_4 sentAcks:count 0
attr source org_car2x_veins_modules_mac_sigSentAck
scalar RSUExampleScenario3.node[21].nic.mac1609_4 sentPackets:count 2
attr source org_car2x_veins_modules_mac_sigSentPacket
scalar RSUExampleScenario3.node[21].nic.mac1609_4 collisions:count 0
attr source org_car2x_veins_modules_mac_sigCollision
scalar RSUExampleScenario3.node[21].nic.mac1609_4 channelBusy:timeavg 9.2389086574074e-05
attr source org_car2x_veins_modules_mac_sigChannelBusy
scalar RSUExampleScenario3.node[21].veinsmobility startTime 73
scalar RSUExampleScenario3.node[21].veinsmobility totalTime 107
scalar RSUExampleScenario3.node[21].veinsmobility stopTime 181
scalar RSUExampleScenario3.node[21].veinsmobility minSpeed 4.065036388708
scalar RSUExampleScenario3.node[21].veinsmobility maxSpeed 31.335296297503
scalar RSUExampleScenario3.node[21].veinsmobility totalDistance 1988.5469490721
scalar RSUExampleScenario3.node[21].veinsmobility totalCO2Emission 402.16958523612
scalar RSUExampleScenario3.node[19].nic.phy80211p busyTime 0.000122
scalar RSUExampleScenario3.node[19].nic.mac1609_4 ReceivedUnicastPackets 0
scalar RSUExampleScenario3.node[19].nic.mac1609_4 ReceivedBroadcasts 7
scalar RSUExampleScenario3.node[19].nic.mac1609_4 SentPackets 2
scalar RSUExampleScenario3.node[19].nic.mac1609_4 SentAcknowledgements 0
scalar RSUExampleScenario3.node[19].nic.mac1609_4 RetriesExceeded 0
scalar RSUExampleScenario3.node[19].nic.mac1609_4 SNIRLostPackets 54
scalar RSUExampleScenario3.node[19].nic.mac1609_4 RXTXLostPackets 1
scalar RSUExampleScenario3.node[19].nic.mac1609_4 TotalLostPackets 55
scalar RSUExampleScenario3.node[19].nic.mac1609_4 DroppedPacketsInMac 0
scalar RSUExampleScenario3.node[19].nic.mac1609_4 TooLittleTime 0
scalar RSUExampleScenario3.node[19].nic.mac1609_4 TimesIntoBackoff 2
scalar RSUExampleScenario3.node[19].nic.mac1609_4 SlotsBackoff 4
scalar RSUExampleScenario3.node[19].nic.mac1609_4 NumInternalContention 0
scalar RSUExampleScenario3.node[19].nic.mac1609_4 totalBusyTime 0.010674010676
scalar RSUExampleScenario3.node[19].nic.mac1609_4 retriesExceeded:count 0
attr source org_car2x_veins_modules_mac_sigRetriesExceeded
scalar RSUExampleScenario3.node[19].nic.mac1609_4 sentAcks:count 0
attr source org_car2x_veins_modules_mac_sigSentAck
scalar RSUExampleScenario3.node[19].nic.mac1609_4 sentPackets:count 2
attr source org_car2x_veins_modules_mac_sigSentPacket
scalar RSUExampleScenario3.node[19].nic.mac1609_4 collisions:count 0
attr source org_car2x_veins_modules_mac_sigCollision
scalar RSUExampleScenario3.node[19].nic.mac1609_4 channelBusy:timeavg 9.2017333413793e-05
attr source org_car2x_veins_modules_mac_sigChannelBusy
scalar RSUExampleScenario3.node[19].veinsmobility startTime 65
scalar RSUExampleScenario3.node[19].veinsmobility totalTime 115
scalar RSUExampleScenario3.node[19].veinsmobility stopTime 181
scalar RSUExampleScenario3.node[19].veinsmobility minSpeed 2.532569135188
scalar RSUExampleScenario3.node[19].veinsmobility maxSpeed 18.025921006524
scalar RSUExampleScenario3.node[19].veinsmobility totalDistance 1979.6507576639
scalar RSUExampleScenario3.node[19].veinsmobility totalCO2Emission 331.30757306291
scalar RSUExampleScenario3.node[25].nic.phy80211p busyTime 0.00012808333333333
scalar RSUExampleScenario3.node[25].nic.mac1609_4 ReceivedUnicastPackets 0
scalar RSUExampleScenario3.node[25].nic.mac1609_4 ReceivedBroadcasts 7
scalar RSUExampleScenario3.node[25].nic.mac1609_4 SentPackets 2
scalar RSUExampleScenario3.node[25].nic.mac1609_4 SentAcknowledgements 0
scalar RSUExampleScenario3.node[25].nic.mac1609_4 RetriesExceeded 0
scalar RSUExampleScenario3.node[25].nic.mac1609_4 SNIRLostPackets 46
scalar RSUExampleScenario3.node[25].nic.mac1609_4 RXTXLostPackets 1
scalar RSUExampleScenario3.node[25].nic.mac1609_4 TotalLostPackets 47
scalar RSUExampleScenario3.node[25].nic.mac1609_4 DroppedPacketsInMac 0
scalar RSUExampleScenario3.node[25].nic.mac1609_4 TooLittleTime 0
scalar RSUExampleScenario3.node[25].nic.mac1609_4 TimesIntoBackoff 2
scalar RSUExampleScenario3.node[25].nic.mac1609_4 SlotsBackoff 3
scalar RSUExampleScenario3.node[25].nic.mac1609_4 NumInternalContention 0
scalar RSUExampleScenario3.node[25].nic.mac1609_4 totalBusyTime 0.009514010683
scalar RSUExampleScenario3.node[25].nic.mac1609_4 retriesExceeded:count 0
attr source org_car2x_veins_modules_mac_sigRetriesExceeded
scalar RSUExampleScenario3.node[25].nic.mac1609_4 sentAcks:count 0
attr source org_car2x_veins_modules_mac_sigSentAck
scalar RSUExampleScenario3.node[25].nic.mac1609_4 sentPackets:count 2
attr source org_car2x_veins_modules_mac_sigSentPacket
scalar RSUExampleScenario3.node[25].nic.mac1609_4 collisions:count 0
attr source org_car2x_veins_modules_mac_sigCollision
scalar RSUExampleScenario3.node[25].nic.mac1609_4 channelBusy:timeavg 9.9104277947917e-05
attr source org_car2x_veins_modules_mac_sigChannelBusy
scalar RSUExampleScenario3.node[25].veinsmobility startTime 87
scalar RSUExampleScenario3.node[25].veinsmobility totalTime 95
scalar RSUExampleScenario3.node[25].veinsmobility stopTime 183
scalar RSUExampleScenario3.node[25].veinsmobility minSpeed 3.3743614253024
scalar RSUExampleScenario3.node[25].veinsmobility maxSpeed 28.613053871025
scalar RSUExampleScenario3.node[25].veinsmobility totalDistance 1990.4765081659
scalar RSUExampleScenario3.node[25].veinsmobility totalCO2Emission 397.67361729651
scalar RSUExampleScenario3.node[27].nic.phy80211p busyTime 0.00012631111111111
scalar RSUExampleScenario3.node[27].nic.mac1609_4 ReceivedUnicastPackets 0
scalar RSUExampleScenario3.node[27].nic.mac1609_4 ReceivedBroadcasts 7
scalar RSUExampleScenario3.node[27].nic.mac1609_4 SentPackets 2
scalar RSUExampleScenario3.node[27].nic.mac1609_4 SentAcknowledgements 0
scalar RSUExampleScenario3.node[27].nic.mac1609_4 RetriesExceeded 0
scalar RSUExampleScenario3.node[27].nic.mac1609_4 SNIRLostPackets 42
scalar RSUExampleScenario3.node[27].nic.mac1609_4 RXTXLostPackets 1
scalar RSUExampleScenario3.node[27].nic.mac1609_4 TotalLostPackets 43
scalar RSUExampleScenario3.node[27].nic.mac1609_4 DroppedPacketsInMac 0
scalar RSUExampleScenario3.node[27].nic.mac1609_4 TooLittleTime 0
scalar RSUExampleScenario3.node[27].nic.mac1609_4 TimesIntoBackoff 2
scalar RSUExampleScenario3.node[27].nic.mac1609_4 SlotsBackoff 5
scalar RSUExampleScenario3.node[27].nic.mac1609_4 NumInternalContention 0
scalar RSUExampleScenario3.node[27].nic.mac1609_4 totalBusyTime 0.008818010678
scalar RSUExampleScenario3.node[27].nic.mac1609_4 retriesExceeded:count 0
attr source org_car2x_veins_modules_mac_sigRetriesExceeded
scalar RSUExampleScenario3.node[27].nic.mac1609_4 sentAcks:count 0
attr source org_car2x_veins_modules_mac_sigSentAck
scalar RSUExampleScenario3.node[27].nic.mac1609_4 sentPackets:count 2
attr source org_car2x_veins_modules_mac_sigSentPacket
scalar RSUExampleScenario3.node[27].nic.mac1609_4 collisions:count 0
attr source org_car2x_veins_modules_mac_sigCollision
scalar RSUExampleScenario3.node[27].nic.mac1609_4 channelBusy:timeavg 9.7977896422222e-05
attr source org_car2x_veins_modules_mac_sigChannelBusy
scalar RSUExampleScenario3.node[27].veinsmobility startTime 94
scalar RSUExampleScenario3.node[27].veinsmobility totalTime 89
scalar RSUExampleScenario3.node[27].veinsmobility stopTime 184
scalar RSUExampleScenario3.node[27].veinsmobility minSpeed 2.774650840284
scalar RSUExampleScenario3.node[27].veinsmobility maxSpeed 32.18319482941
scalar RSUExampleScenario3.node[27].veinsmobility totalDistance 1981.4343590529
scalar RSUExampleScenario3.node[27].veinsmobility totalCO2Emission 479.86982634181
scalar RSUExampleScenario3.node[20].nic.phy80211p busyTime 0.00012
scalar RSUExampleScenario3.node[20].nic.mac1609_4 ReceivedUnicastPackets 0
scalar RSUExampleScenario3.node[20].nic.mac1609_4 ReceivedBroadcasts 10
scalar RSUExampleScenario3.node[20].nic.mac1609_4 SentPackets 2
scalar RSUExampleScenario3.node[20].nic.mac1609_4 SentAcknowledgements 0
scalar RSUExampleScenario3.node[20].nic.mac1609_4 RetriesExceeded 0
scalar RSUExampleScenario3.node[20].nic.mac1609_4 SNIRLostPackets 50
scalar RSUExampleScenario3.node[20].nic.mac1609_4 RXTXLostPackets 2
scalar RSUExampleScenario3.node[20].nic.mac1609_4 TotalLostPackets 52
scalar RSUExampleScenario3.node[20].nic.mac1609_4 DroppedPacketsInMac 0
scalar RSUExampleScenario3.node[20].nic.mac1609_4 TooLittleTime 0
scalar RSUExampleScenario3.node[20].nic.mac1609_4 TimesIntoBackoff 2
scalar RSUExampleScenario3.node[20].nic.mac1609_4 SlotsBackoff 0
scalar RSUExampleScenario3.node[20].nic.mac1609_4 NumInternalContention 0
scalar RSUExampleScenario3.node[20].nic.mac1609_4 totalBusyTime 0.01067402135
scalar RSUExampleScenario3.node[20].nic.mac1609_4 retriesExceeded:count 0
attr source org_car2x_veins_modules_mac_sigRetriesExceeded
scalar RSUExampleScenario3.node[20].nic.mac1609_4 sentAcks:count 0
attr source org_car2x_veins_modules_mac_sigSentAck
scalar RSUExampleScenario3.node[20].nic.mac1609_4 sentPackets:count 2
attr source org_car2x_veins_modules_mac_sigSentPacket
scalar RSUExampleScenario3.node[20].nic.mac1609_4 collisions:count 0
attr source org_car2x_veins_modules_mac_sigCollision
scalar RSUExampleScenario3.node[20].nic.mac1609_4 channelBusy:timeavg 9.2017425431034e-05
attr source org_car2x_veins_modules_mac_sigChannelBusy
scalar RSUExampleScenario3.node[20].veinsmobility startTime 73
scalar RSUExampleScenario3.node[20].veinsmobility totalTime 115
scalar RSUExampleScenario3.node[20].veinsmobility stopTime 189
scalar RSUExampleScenario3.node[20].veinsmobility minSpeed 4.187969563655
scalar RSUExampleScenario3.node[20].veinsmobility maxSpeed 19.050999936259
scalar RSUExampleScenario3.node[20].veinsmobility totalDistance 1990.5345312269
scalar RSUExampleScenario3.node[20].veinsmobility totalCO2Emission 372.25784392229
scalar RSUExampleScenario3.node[26].nic.phy80211p busyTime 0.00012420202020202
scalar RSUExampleScenario3.node[26].nic.mac1609_4 ReceivedUnicastPackets 0
scalar RSUExampleScenario3.node[26].nic.mac1609_4 ReceivedBroadcasts 9
scalar RSUExampleScenario3.node[26].nic.mac1609_4 SentPackets 2
scalar RSUExampleScenario3.node[26].nic.mac1609_4 SentAcknowledgements 0
scalar RSUExampleScenario3.node[26].nic.mac1609_4 RetriesExceeded 0
scalar RSUExampleScenario3.node[26].nic.mac1609_4 SNIRLostPackets 44
scalar RSUExampleScenario3.node[26].nic.mac1609_4 RXTXLostPackets 1
scalar RSUExampleScenario3.node[26].nic.mac1609_4 TotalLostPackets 45
scalar RSUExampleScenario3.node[26].nic.mac1609_4 DroppedPacketsInMac 0
scalar RSUExampleScenario3.node[26].nic.mac1609_4 TooLittleTime 0
scalar RSUExampleScenario3.node[26].nic.mac1609_4 TimesIntoBackoff 2
scalar RSUExampleScenario3.node[26].nic.mac1609_4 SlotsBackoff 3
scalar RSUExampleScenario3.node[26].nic.mac1609_4 NumInternalContention 0
scalar RSUExampleScenario3.node[26].nic.mac1609_4 totalBusyTime 0.009514010678
scalar RSUExampleScenario3.node[26].nic.mac1609_4 retriesExceeded:count 0
attr source org_car2x_veins_modules_mac_sigRetriesExceeded
scalar RSUExampleScenario3.node[26].nic.mac1609_4 sentAcks:count 0
attr source org_car2x_veins_modules_mac_sigSentAck
scalar RSUExampleScenario3.node[26].nic.mac1609_4 sentPackets:count 2
attr source org_car2x_veins_modules_mac_sigSentPacket
scalar RSUExampleScenario3.node[26].nic.mac1609_4 collisions:count 0
attr source org_car2x_veins_modules_mac_sigCollision
scalar RSUExampleScenario3.node[26].nic.mac1609_4 channelBusy:timeavg 9.6101117959596e-05
attr source org_car2x_veins_modules_mac_sigChannelBusy
scalar RSUExampleScenario3.node[26].veinsmobility startTime 94
scalar RSUExampleScenario3.node[26].veinsmobility totalTime 98
scalar RSUExampleScenario3.node[26].veinsmobility stopTime 193
scalar RSUExampleScenario3.node[26].veinsmobility minSpeed 2.6503207467334
scalar RSUExampleScenario3.node[26].veinsmobility maxSpeed 21.798628487632
scalar RSUExampleScenario3.node[26].veinsmobility totalDistance 1981.9278562849
scalar RSUExampleScenario3.node[26].veinsmobility totalCO2Emission 359.40932912995
scalar RSUExampleScenario3.node[31].nic.phy80211p busyTime 0.0001235652173913
scalar RSUExampleScenario3.node[31].nic.mac1609_4 ReceivedUnicastPackets 0
scalar RSUExampleScenario3.node[31].nic.mac1609_4 ReceivedBroadcasts 7
scalar RSUExampleScenario3.node[31].nic.mac1609_4 SentPackets 2
scalar RSUExampleScenario3.node[31].nic.mac1609_4 SentAcknowledgements 0
scalar RSUExampleScenario3.node[31].nic.mac1609_4 RetriesExceeded 0
scalar RSUExampleScenario3.node[31].nic.mac1609_4 SNIRLostPackets 42
scalar RSUExampleScenario3.node[31].nic.mac1609_4 RXTXLostPackets 1
scalar RSUExampleScenario3.node[31].nic.mac1609_4 TotalLostPackets 43
scalar RSUExampleScenario3.node[31].nic.mac1609_4 DroppedPacketsInMac 0
scalar RSUExampleScenario3.node[31].nic.mac1609_4 TooLittleTime 0
scalar RSUExampleScenario3.node[31].nic.mac1609_4 TimesIntoBackoff 2
scalar RSUExampleScenario3.node[31].nic.mac1609_4 SlotsBackoff 6
scalar RSUExampleScenario3.node[31].nic.mac1609_4 NumInternalContention 0
scalar RSUExampleScenario3.node[31].nic.mac1609_4 totalBusyTime 0.008586010685
scalar RSUExampleScenario3.node[31].nic.mac1609_4 retriesExceeded:count 0
attr source org_car2x_veins_modules_mac_sigRetriesExceeded
scalar RSUExampleScenario3.node[31].nic.mac1609_4 sentAcks:count 0
attr source org_car2x_veins_modules_mac_sigSentAck
scalar RSUExampleScenario3.node[31].nic.mac1609_4 sentPackets:count 2
attr source org_car2x_veins_modules_mac_sigSentPacket
scalar RSUExampleScenario3.node[31].nic.mac1609_4 collisions:count 0
attr source org_car2x_veins_modules_mac_sigCollision
scalar RSUExampleScenario3.node[31].nic.mac1609_4 channelBusy:timeavg 9.3326203097826e-05
attr source org_car2x_veins_modules_mac_sigChannelBusy
scalar RSUExampleScenario3.node[31].veinsmobility startTime 109
scalar RSUExampleScenario3.node[31].veinsmobility totalTime 91
scalar RSUExampleScenario3.node[31].veinsmobility stopTime 201
scalar RSUExampleScenario3.node[31].veinsmobility minSpeed 4.1509322384187
scalar RSUExampleScenario3.node[31].veinsmobility maxSpeed 32.181649538547
scalar RSUExampleScenario3.node[31].veinsmobility totalDistance 1978.3658708314
scalar RSUExampleScenario3.node[31].veinsmobility totalCO2Emission 512.87690793078
scalar RSUExampleScenario3.node[22].nic.phy80211p busyTime 0.00012909677419355
scalar RSUExampleScenario3.node[22].nic.mac1609_4 ReceivedUnicastPackets 0
scalar RSUExampleScenario3.node[22].nic.mac1609_4 ReceivedBroadcasts 11
scalar RSUExampleScenario3.node[22].nic.mac1609_4 SentPackets 2
scalar RSUExampleScenario3.node[22].nic.mac1609_4 SentAcknowledgements 0
scalar RSUExampleScenario3.node[22].nic.mac1609_4 RetriesExceeded 0
scalar RSUExampleScenario3.node[22].nic.mac1609_4 SNIRLostPackets 58
scalar RSUExampleScenario3.node[22].nic.mac1609_4 RXTXLostPackets 1
scalar RSUExampleScenario3.node[22].nic.mac1609_4 TotalLostPackets 59
scalar RSUExampleScenario3.node[22].nic.mac1609_4 DroppedPacketsInMac 0
scalar RSUExampleScenario3.node[22].nic.mac1609_4 TooLittleTime 0
scalar RSUExampleScenario3.node[22].nic.mac1609_4 TimesIntoBackoff 2
scalar RSUExampleScenario3.node[22].nic.mac1609_4 SlotsBackoff 5
scalar RSUExampleScenario3.node[22].nic.mac1609_4 NumInternalContention 0
scalar RSUExampleScenario3.node[22].nic.mac1609_4 totalBusyTime 0.012066010676
scalar RSUExampleScenario3.node[22].nic.mac1609_4 retriesExceeded:count 0
attr source org_car2x_veins_modules_mac_sigRetriesExceeded
scalar RSUExampleScenario3.node[22].nic.mac1609_4 sentAcks:count 0
attr source org_car2x_veins_modules_mac_sigSentAck
scalar RSUExampleScenario3.node[22].nic.mac1609_4 sentPackets:count 2
attr source org_car2x_veins_modules_mac_sigSentPacket
scalar RSUExampleScenario3.node[22].nic.mac1609_4 collisions:count 0
attr source org_car2x_veins_modules_mac_sigCollision
scalar RSUExampleScenario3.node[22].nic.mac1609_4 channelBusy:timeavg 9.7306537709677e-05
attr source org_car2x_veins_modules_mac_sigChannelBusy
scalar RSUExampleScenario3.node[22].veinsmobility startTime 80
scalar RSUExampleScenario3.node[22].veinsmobility totalTime 123
scalar RSUExampleScenario3.node[22].veinsmobility stopTime 204
scalar RSUExampleScenario3.node[22].veinsmobility minSpeed 3.5813565075353
scalar RSUExampleScenario3.node[22].veinsmobility maxSpeed 16.879268558174
scalar RSUExampleScenario3.node[22].veinsmobility totalDistance 1990.9967812545
scalar RSUExampleScenario3.node[22].veinsmobility totalCO2Emission 334.43268593005
scalar RSUExampleScenario3.node[3].nic.phy80211p busyTime 0.00012902040816327
scalar RSUExampleScenario3.node[3].nic.mac1609_4 ReceivedUnicastPackets 0
scalar RSUExampleScenario3.node[3].nic.mac1609_4 ReceivedBroadcasts 9
scalar RSUExampleScenario3.node[3].nic.mac1609_4 SentPackets 2
scalar RSUExampleScenario3.node[3].nic.mac1609_4 SentAcknowledgements 0
scalar RSUExampleScenario3.node[3].nic.mac1609_4 RetriesExceeded 0
scalar RSUExampleScenario3.node[3].nic.mac1609_4 SNIRLostPackets 100
scalar RSUExampleScenario3.node[3].nic.mac1609_4 RXTXLostPackets 1
scalar RSUExampleScenario3.node[3].nic.mac1609_4 TotalLostPackets 101
scalar RSUExampleScenario3.node[3].nic.mac1609_4 DroppedPacketsInMac 0
scalar RSUExampleScenario3.node[3].nic.mac1609_4 TooLittleTime 0
scalar RSUExampleScenario3.node[3].nic.mac1609_4 TimesIntoBackoff 2
scalar RSUExampleScenario3.node[3].nic.mac1609_4 SlotsBackoff 3
scalar RSUExampleScenario3.node[3].nic.mac1609_4 NumInternalContention 0
scalar RSUExampleScenario3.node[3].nic.mac1609_4 totalBusyTime 0.018098010674
scalar RSUExampleScenario3.node[3].nic.mac1609_4 retriesExceeded:count 0
attr source org_car2x_veins_modules_mac_sigRetriesExceeded
scalar RSUExampleScenario3.node[3].nic.mac1609_4 sentAcks:count 0
attr source org_car2x_veins_modules_mac_sigSentAck
scalar RSUExampleScenario3.node[3].nic.mac1609_4 sentPackets:count 2
attr source org_car2x_veins_modules_mac_sigSentPacket
scalar RSUExampleScenario3.node[3].nic.mac1609_4 collisions:count 0
attr source org_car2x_veins_modules_mac_sigCollision
scalar RSUExampleScenario3.node[3].nic.mac1609_4 channelBusy:timeavg 9.2336789153061e-05
attr source org_car2x_veins_modules_mac_sigChannelBusy
scalar RSUExampleScenario3.node[3].veinsmobility startTime 8
scalar RSUExampleScenario3.node[3].veinsmobility totalTime 195
scalar RSUExampleScenario3.node[3].veinsmobility stopTime 204
scalar RSUExampleScenario3.node[3].veinsmobility minSpeed 3.6119215844089
scalar RSUExampleScenario3.node[3].veinsmobility maxSpeed 10.367498506955
scalar RSUExampleScenario3.node[3].veinsmobility totalDistance 1990.1351777083
scalar RSUExampleScenario3.node[3].veinsmobility totalCO2Emission 343.31813664446
scalar RSUExampleScenario3.node[24].nic.phy80211p busyTime 0.00012851798561151
scalar RSUExampleScenario3.node[24].nic.mac1609_4 ReceivedUnicastPackets 0
scalar RSUExampleScenario3.node[24].nic.mac1609_4 ReceivedBroadcasts 11
scalar RSUExampleScenario3.node[24].nic.mac1609_4 SentPackets 2
scalar RSUExampleScenario3.node[24].nic.mac1609_4 SentAcknowledgements 0
scalar RSUExampleScenario3.node[24].nic.mac1609_4 RetriesExceeded 0
scalar RSUExampleScenario3.node[24].nic.mac1609_4 SNIRLostPackets 66
scalar RSUExampleScenario3.node[24].nic.mac1609_4 RXTXLostPackets 1
scalar RSUExampleScenario3.node[24].nic.mac1609_4 TotalLostPackets 67
scalar RSUExampleScenario3.node[24].nic.mac1609_4 DroppedPacketsInMac 0
scalar RSUExampleScenario3.node[24].nic.mac1609_4 TooLittleTime 0
scalar RSUExampleScenario3.node[24].nic.mac1609_4 TimesIntoBackoff 2
scalar RSUExampleScenario3.node[24].nic.mac1609_4 SlotsBackoff 5
scalar RSUExampleScenario3.node[24].nic.mac1609_4 NumInternalContention 0
scalar RSUExampleScenario3.node[24].nic.mac1609_4 totalBusyTime 0.013458010683
scalar RSUExampleScenario3.node[24].nic.mac1609_4 retriesExceeded:count 0
attr source org_car2x_veins_modules_mac_sigRetriesExceeded
scalar RSUExampleScenario3.node[24].nic.mac1609_4 sentAcks:count 0
attr source org_car2x_veins_modules_mac_sigSentAck
scalar RSUExampleScenario3.node[24].nic.mac1609_4 sentPackets:count 2
attr source org_car2x_veins_modules_mac_sigSentPacket
scalar RSUExampleScenario3.node[24].nic.mac1609_4 collisions:count 0
attr source org_car2x_veins_modules_mac_sigCollision
scalar RSUExampleScenario3.node[24].nic.mac1609_4 channelBusy:timeavg 9.6820220741007e-05
attr source org_car2x_veins_modules_mac_sigChannelBusy
scalar RSUExampleScenario3.node[24].veinsmobility startTime 87
scalar RSUExampleScenario3.node[24].veinsmobility totalTime 138
scalar RSUExampleScenario3.node[24].veinsmobility stopTime 226
scalar RSUExampleScenario3.node[24].veinsmobility minSpeed 3.162739005315
scalar RSUExampleScenario3.node[24].veinsmobility maxSpeed 14.78037860753
scalar RSUExampleScenario3.node[24].veinsmobility totalDistance 1982.1299292719
scalar RSUExampleScenario3.node[24].veinsmobility totalCO2Emission 315.02181052673
scalar RSUExampleScenario3.node[33].nic.phy80211p busyTime 0.00012635714285714
scalar RSUExampleScenario3.node[33].nic.mac1609_4 ReceivedUnicastPackets 0
scalar RSUExampleScenario3.node[33].nic.mac1609_4 ReceivedBroadcasts 9
scalar RSUExampleScenario3.node[33].nic.mac1609_4 SentPackets 2
scalar RSUExampleScenario3.node[33].nic.mac1609_4 SentAcknowledgements 0
scalar RSUExampleScenario3.node[33].nic.mac1609_4 RetriesExceeded 0
scalar RSUExampleScenario3.node[33].nic.mac1609_4 SNIRLostPackets 52
scalar RSUExampleScenario3.node[33].nic.mac1609_4 RXTXLostPackets 1
scalar RSUExampleScenario3.node[33].nic.mac1609_4 TotalLostPackets 53
scalar RSUExampleScenario3.node[33].nic.mac1609_4 DroppedPacketsInMac 0
scalar RSUExampleScenario3.node[33].nic.mac1609_4 TooLittleTime 0
scalar RSUExampleScenario3.node[33].nic.mac1609_4 TimesIntoBackoff 2
scalar RSUExampleScenario3.node[33].nic.mac1609_4 SlotsBackoff 4
scalar RSUExampleScenario3.node[33].nic.mac1609_4 NumInternalContention 0
scalar RSUExampleScenario3.node[33].nic.mac1609_4 totalBusyTime 0.01067401068
scalar RSUExampleScenario3.node[33].nic.mac1609_4 retriesExceeded:count 0
attr source org_car2x_veins_modules_mac_sigRetriesExceeded
scalar RSUExampleScenario3.node[33].nic.mac1609_4 sentAcks:count 0
attr source org_car2x_veins_modules_mac_sigSentAck
scalar RSUExampleScenario3.node[33].nic.mac1609_4 sentPackets:count 2
attr source org_car2x_veins_modules_mac_sigSentPacket
scalar RSUExampleScenario3.node[33].nic.mac1609_4 collisions:count 0
attr source org_car2x_veins_modules_mac_sigCollision
scalar RSUExampleScenario3.node[33].nic.mac1609_4 channelBusy:timeavg 9.5303666785714e-05
attr source org_car2x_veins_modules_mac_sigChannelBusy
scalar RSUExampleScenario3.node[33].veinsmobility startTime 116
scalar RSUExampleScenario3.node[33].veinsmobility totalTime 111
scalar RSUExampleScenario3.node[33].veinsmobility stopTime 228
scalar RSUExampleScenario3.node[33].veinsmobility minSpeed 3.6711907128309
scalar RSUExampleScenario3.node[33].veinsmobility maxSpeed 21.044274174807
scalar RSUExampleScenario3.node[33].veinsmobility totalDistance 1976.5578201986
scalar RSUExampleScenario3.node[33].veinsmobility totalCO2Emission 371.69155798455
scalar RSUExampleScenario3.node[32].nic.phy80211p busyTime 0.00012414035087719
scalar RSUExampleScenario3.node[32].nic.mac1609_4 ReceivedUnicastPackets 0
scalar RSUExampleScenario3.node[32].nic.mac1609_4 ReceivedBroadcasts 9
scalar RSUExampleScenario3.node[32].nic.mac1609_4 SentPackets 2
scalar RSUExampleScenario3.node[32].nic.mac1609_4 SentAcknowledgements 0
scalar RSUExampleScenario3.node[32].nic.mac1609_4 RetriesExceeded 0
scalar RSUExampleScenario3.node[32].nic.mac1609_4 SNIRLostPackets 52
scalar RSUExampleScenario3.node[32].nic.mac1609_4 RXTXLostPackets 1
scalar RSUExampleScenario3.node[32].nic.mac1609_4 TotalLostPackets 53
scalar RSUExampleScenario3.node[32].nic.mac1609_4 DroppedPacketsInMac 0
scalar RSUExampleScenario3.node[32].nic.mac1609_4 TooLittleTime 0
scalar RSUExampleScenario3.node[32].nic.mac1609_4 TimesIntoBackoff 2
scalar RSUExampleScenario3.node[32].nic.mac1609_4 SlotsBackoff 4
scalar RSUExampleScenario3.node[32].nic.mac1609_4 NumInternalContention 0
scalar RSUExampleScenario3.node[32].nic.mac1609_4 totalBusyTime 0.01067401068
scalar RSUExampleScenario3.node[32].nic.mac1609_4 retriesExceeded:count 0
attr source org_car2x_veins_modules_mac_sigRetriesExceeded
scalar RSUExampleScenario3.node[32].nic.mac1609_4 sentAcks:count 0
attr source org_car2x_veins_modules_mac_sigSentAck
scalar RSUExampleScenario3.node[32].nic.mac1609_4 sentPackets:count 2
attr source org_car2x_veins_modules_mac_sigSentPacket
scalar RSUExampleScenario3.node[32].nic.mac1609_4 collisions:count 0
attr source org_car2x_veins_modules_mac_sigCollision
scalar RSUExampleScenario3.node[32].nic.mac1609_4 channelBusy:timeavg 9.3631672631579e-05
attr source org_car2x_veins_modules_mac_sigChannelBusy
scalar RSUExampleScenario3.node[32].veinsmobility startTime 116
scalar RSUExampleScenario3.node[32].veinsmobility totalTime 113
scalar RSUExampleScenario3.node[32].veinsmobility stopTime 230
scalar RSUExampleScenario3.node[32].veinsmobility minSpeed 3.4124092394718
scalar RSUExampleScenario3.node[32].veinsmobility maxSpeed 22.979699746663
scalar RSUExampleScenario3.node[32].veinsmobility totalDistance 1991.1367861811
scalar RSUExampleScenario3.node[32].veinsmobility totalCO2Emission 381.58191420762
scalar RSUExampleScenario3.node[34].nic.phy80211p busyTime 0.00012244444444444
scalar RSUExampleScenario3.node[34].nic.mac1609_4 ReceivedUnicastPackets 0
scalar RSUExampleScenario3.node[34].nic.mac1609_4 ReceivedBroadcasts 7
scalar RSUExampleScenario3.node[34].nic.mac1609_4 SentPackets 2
scalar RSUExampleScenario3.node[34].nic.mac1609_4 SentAcknowledgements 0
scalar RSUExampleScenario3.node[34].nic.mac1609_4 RetriesExceeded 0
scalar RSUExampleScenario3.node[34].nic.mac1609_4 SNIRLostPackets 50
scalar RSUExampleScenario3.node[34].nic.mac1609_4 RXTXLostPackets 1
scalar RSUExampleScenario3.node[34].nic.mac1609_4 TotalLostPackets 51
scalar RSUExampleScenario3.node[34].nic.mac1609_4 DroppedPacketsInMac 0
scalar RSUExampleScenario3.node[34].nic.mac1609_4 TooLittleTime 0
scalar RSUExampleScenario3.node[34].nic.mac1609_4 TimesIntoBackoff 2
scalar RSUExampleScenario3.node[34].nic.mac1609_4 SlotsBackoff 3
scalar RSUExampleScenario3.node[34].nic.mac1609_4 NumInternalContention 0
scalar RSUExampleScenario3.node[34].nic.mac1609_4 totalBusyTime 0.009978010681
scalar RSUExampleScenario3.node[34].nic.mac1609_4 retriesExceeded:count 0
attr source org_car2x_veins_modules_mac_sigRetriesExceeded
scalar RSUExampleScenario3.node[34].nic.mac1609_4 sentAcks:count 0
attr source org_car2x_veins_modules_mac_sigSentAck
scalar RSUExampleScenario3.node[34].nic.mac1609_4 sentPackets:count 2
attr source org_car2x_veins_modules_mac_sigSentPacket
scalar RSUExampleScenario3.node[34].nic.mac1609_4 collisions:count 0
attr source org_car2x_veins_modules_mac_sigCollision
scalar RSUExampleScenario3.node[34].nic.mac1609_4 channelBusy:timeavg 9.2388987787037e-05
attr source org_car2x_veins_modules_mac_sigChannelBusy
scalar RSUExampleScenario3.node[34].veinsmobility startTime 123
scalar RSUExampleScenario3.node[34].veinsmobility totalTime 107
scalar RSUExampleScenario3.node[34].veinsmobility stopTime 231
scalar RSUExampleScenario3.node[34].veinsmobility minSpeed 3.1620206709953
scalar RSUExampleScenario3.node[34].veinsmobility maxSpeed 30.869194288408
scalar RSUExampleScenario3.node[34].veinsmobility totalDistance 1987.7014647331
scalar RSUExampleScenario3.node[34].veinsmobility totalCO2Emission 415.48173439908
scalar RSUExampleScenario3.node[36].nic.phy80211p busyTime 0.00012054901960784
scalar RSUExampleScenario3.node[36].nic.mac1609_4 ReceivedUnicastPackets 0
scalar RSUExampleScenario3.node[36].nic.mac1609_4 ReceivedBroadcasts 7
scalar RSUExampleScenario3.node[36].nic.mac1609_4 SentPackets 2
scalar RSUExampleScenario3.node[36].nic.mac1609_4 SentAcknowledgements 0
scalar RSUExampleScenario3.node[36].nic.mac1609_4 RetriesExceeded 0
scalar RSUExampleScenario3.node[36].nic.mac1609_4 SNIRLostPackets 46
scalar RSUExampleScenario3.node[36].nic.mac1609_4 RXTXLostPackets 1
scalar RSUExampleScenario3.node[36].nic.mac1609_4 TotalLostPackets 47
scalar RSUExampleScenario3.node[36].nic.mac1609_4 DroppedPacketsInMac 0
scalar RSUExampleScenario3.node[36].nic.mac1609_4 TooLittleTime 0
scalar RSUExampleScenario3.node[36].nic.mac1609_4 TimesIntoBackoff 2
scalar RSUExampleScenario3.node[36].nic.mac1609_4 SlotsBackoff 3
scalar RSUExampleScenario3.node[36].nic.mac1609_4 NumInternalContention 0
scalar RSUExampleScenario3.node[36].nic.mac1609_4 totalBusyTime 0.009282010674
scalar RSUExampleScenario3.node[36].nic.mac1609_4 retriesExceeded:count 0
attr source org_car2x_veins_modules_mac_sigRetriesExceeded
scalar RSUExampleScenario3.node[36].nic.mac1609_4 sentAcks:count 0
attr source org_car2x_veins_modules_mac_sigSentAck
scalar RSUExampleScenario3.node[36].nic.mac1609_4 sentPackets:count 2
attr source org_car2x_veins_modules_mac_sigSentPacket
scalar RSUExampleScenario3.node[36].nic.mac1609_4 collisions:count 0
attr source org_car2x_veins_modules_mac_sigCollision
scalar RSUExampleScenario3.node[36].nic.mac1609_4 channelBusy:timeavg 9.1000104647059e-05
attr source org_car2x_veins_modules_mac_sigChannelBusy
scalar RSUExampleScenario3.node[36].veinsmobility startTime 130
scalar RSUExampleScenario3.node[36].veinsmobility totalTime 101
scalar RSUExampleScenario3.node[36].veinsmobility stopTime 232
scalar RSUExampleScenario3.node[36].veinsmobility minSpeed 2.8735857518372
scalar RSUExampleScenario3.node[36].veinsmobility maxSpeed 21.676129679914
scalar RSUExampleScenario3.node[36].veinsmobility totalDistance 1984.8997972144
scalar RSUExampleScenario3.node[36].veinsmobility totalCO2Emission 379.42026764839
scalar RSUExampleScenario3.node[23].nic.phy80211p busyTime 0.000124
scalar RSUExampleScenario3.node[23].nic.mac1609_4 ReceivedUnicastPackets 0
scalar RSUExampleScenario3.node[23].nic.mac1609_4 ReceivedBroadcasts 13
scalar RSUExampleScenario3.node[23].nic.mac1609_4 SentPackets 2
scalar RSUExampleScenario3.node[23].nic.mac1609_4 SentAcknowledgements 0
scalar RSUExampleScenario3.node[23].nic.mac1609_4 RetriesExceeded 0
scalar RSUExampleScenario3.node[23].nic.mac1609_4 SNIRLostPackets 80
scalar RSUExampleScenario3.node[23].nic.mac1609_4 RXTXLostPackets 1
scalar RSUExampleScenario3.node[23].nic.mac1609_4 TotalLostPackets 81
scalar RSUExampleScenario3.node[23].nic.mac1609_4 DroppedPacketsInMac 0
scalar RSUExampleScenario3.node[23].nic.mac1609_4 TooLittleTime 0
scalar RSUExampleScenario3.node[23].nic.mac1609_4 TimesIntoBackoff 2
scalar RSUExampleScenario3.node[23].nic.mac1609_4 SlotsBackoff 2
scalar RSUExampleScenario3.node[23].nic.mac1609_4 NumInternalContention 0
scalar RSUExampleScenario3.node[23].nic.mac1609_4 totalBusyTime 0.016010010676
scalar RSUExampleScenario3.node[23].nic.mac1609_4 retriesExceeded:count 0
attr source org_car2x_veins_modules_mac_sigRetriesExceeded
scalar RSUExampleScenario3.node[23].nic.mac1609_4 sentAcks:count 0
attr source org_car2x_veins_modules_mac_sigSentAck
scalar RSUExampleScenario3.node[23].nic.mac1609_4 sentPackets:count 2
attr source org_car2x_veins_modules_mac_sigSentPacket
scalar RSUExampleScenario3.node[23].nic.mac1609_4 collisions:count 0
attr source org_car2x_veins_modules_mac_sigCollision
scalar RSUExampleScenario3.node[23].nic.mac1609_4 channelBusy:timeavg 9.2011555609195e-05
attr source org_car2x_veins_modules_mac_sigChannelBusy
scalar RSUExampleScenario3.node[23].veinsmobility startTime 80
scalar RSUExampleScenario3.node[23].veinsmobility totalTime 173
scalar RSUExampleScenario3.node[23].veinsmobility stopTime 254
scalar RSUExampleScenario3.node[23].veinsmobility minSpeed 3.647808327952
scalar RSUExampleScenario3.node[23].veinsmobility maxSpeed 12.584725720862
scalar RSUExampleScenario3.node[23].veinsmobility totalDistance 1989.0060024555
scalar RSUExampleScenario3.node[23].veinsmobility totalCO2Emission 346.2301356245
scalar RSUExampleScenario3.node[28].nic.phy80211p busyTime 0.00012805194805195
scalar RSUExampleScenario3.node[28].nic.mac1609_4 ReceivedUnicastPackets 0
scalar RSUExampleScenario3.node[28].nic.mac1609_4 ReceivedBroadcasts 13
scalar RSUExampleScenario3.node[28].nic.mac1609_4 SentPackets 2
scalar RSUExampleScenario3.node[28].nic.mac1609_4 SentAcknowledgements 0
scalar RSUExampleScenario3.node[28].nic.mac1609_4 RetriesExceeded 0
scalar RSUExampleScenario3.node[28].nic.mac1609_4 SNIRLostPackets 72
scalar RSUExampleScenario3.node[28].nic.mac1609_4 RXTXLostPackets 1
scalar RSUExampleScenario3.node[28].nic.mac1609_4 TotalLostPackets 73
scalar RSUExampleScenario3.node[28].nic.mac1609_4 DroppedPacketsInMac 0
scalar RSUExampleScenario3.node[28].nic.mac1609_4 TooLittleTime 0
scalar RSUExampleScenario3.node[28].nic.mac1609_4 TimesIntoBackoff 2
scalar RSUExampleScenario3.node[28].nic.mac1609_4 SlotsBackoff 3
scalar RSUExampleScenario3.node[28].nic.mac1609_4 NumInternalContention 0
scalar RSUExampleScenario3.node[28].nic.mac1609_4 totalBusyTime 0.014618010674
scalar RSUExampleScenario3.node[28].nic.mac1609_4 retriesExceeded:count 0
attr source org_car2x_veins_modules_mac_sigRetriesExceeded
scalar RSUExampleScenario3.node[28].nic.mac1609_4 sentAcks:count 0
attr source org_car2x_veins_modules_mac_sigSentAck
scalar RSUExampleScenario3.node[28].nic.mac1609_4 sentPackets:count 2
attr source org_car2x_veins_modules_mac_sigSentPacket
scalar RSUExampleScenario3.node[28].nic.mac1609_4 collisions:count 0
attr source org_car2x_veins_modules_mac_sigCollision
scalar RSUExampleScenario3.node[28].nic.mac1609_4 channelBusy:timeavg 9.4922147233766e-05
attr source org_car2x_veins_modules_mac_sigChannelBusy
scalar RSUExampleScenario3.node[28].veinsmobility startTime 101
scalar RSUExampleScenario3.node[28].veinsmobility totalTime 153
scalar RSUExampleScenario3.node[28].veinsmobility stopTime 255
scalar RSUExampleScenario3.node[28].veinsmobility minSpeed 2.5254963378605
scalar RSUExampleScenario3.node[28].veinsmobility maxSpeed 13.424735856934
scalar RSUExampleScenario3.node[28].veinsmobility totalDistance 1986.9844072895
scalar RSUExampleScenario3.node[28].veinsmobility totalCO2Emission 330.81123828545
scalar RSUExampleScenario3.node[17].nic.phy80211p busyTime 0.00012590954773869
scalar RSUExampleScenario3.node[17].nic.mac1609_4 ReceivedUnicastPackets 0
scalar RSUExampleScenario3.node[17].nic.mac1609_4 ReceivedBroadcasts 14
scalar RSUExampleScenario3.node[17].nic.mac1609_4 SentPackets 2
scalar RSUExampleScenario3.node[17].nic.mac1609_4 SentAcknowledgements 0
scalar RSUExampleScenario3.node[17].nic.mac1609_4 RetriesExceeded 0
scalar RSUExampleScenario3.node[17].nic.mac1609_4 SNIRLostPackets 94
scalar RSUExampleScenario3.node[17].nic.mac1609_4 RXTXLostPackets 2
scalar RSUExampleScenario3.node[17].nic.mac1609_4 TotalLostPackets 96
scalar RSUExampleScenario3.node[17].nic.mac1609_4 DroppedPacketsInMac 0
scalar RSUExampleScenario3.node[17].nic.mac1609_4 TooLittleTime 0
scalar RSUExampleScenario3.node[17].nic.mac1609_4 TimesIntoBackoff 2
scalar RSUExampleScenario3.node[17].nic.mac1609_4 SlotsBackoff 2
scalar RSUExampleScenario3.node[17].nic.mac1609_4 NumInternalContention 0
scalar RSUExampleScenario3.node[17].nic.mac1609_4 totalBusyTime 0.018330021348
scalar RSUExampleScenario3.node[17].nic.mac1609_4 retriesExceeded:count 0
attr source org_car2x_veins_modules_mac_sigRetriesExceeded
scalar RSUExampleScenario3.node[17].nic.mac1609_4 sentAcks:count 0
attr source org_car2x_veins_modules_mac_sigSentAck
scalar RSUExampleScenario3.node[17].nic.mac1609_4 sentPackets:count 2
attr source org_car2x_veins_modules_mac_sigSentPacket
scalar RSUExampleScenario3.node[17].nic.mac1609_4 collisions:count 0
attr source org_car2x_veins_modules_mac_sigCollision
scalar RSUExampleScenario3.node[17].nic.mac1609_4 channelBusy:timeavg 9.2110660040201e-05
attr source org_car2x_veins_modules_mac_sigChannelBusy
scalar RSUExampleScenario3.node[17].veinsmobility startTime 58
scalar RSUExampleScenario3.node[17].veinsmobility totalTime 198
scalar RSUExampleScenario3.node[17].veinsmobility stopTime 257
scalar RSUExampleScenario3.node[17].veinsmobility minSpeed 2.8601475548305
scalar RSUExampleScenario3.node[17].veinsmobility maxSpeed 10.350614965447
scalar RSUExampleScenario3.node[17].veinsmobility totalDistance 1992.989305885
scalar RSUExampleScenario3.node[17].veinsmobility totalCO2Emission 349.83460712936
scalar RSUExampleScenario3.node[44].nic.phy80211p busyTime 0.00012271074380165
scalar RSUExampleScenario3.node[44].nic.mac1609_4 ReceivedUnicastPackets 0
scalar RSUExampleScenario3.node[44].nic.mac1609_4 ReceivedBroadcasts 12
scalar RSUExampleScenario3.node[44].nic.mac1609_4 SentPackets 2
scalar RSUExampleScenario3.node[44].nic.mac1609_4 SentAcknowledgements 0
scalar RSUExampleScenario3.node[44].nic.mac1609_4 RetriesExceeded 0
scalar RSUExampleScenario3.node[44].nic.mac1609_4 SNIRLostPackets 52
scalar RSUExampleScenario3.node[44].nic.mac1609_4 RXTXLostPackets 2
scalar RSUExampleScenario3.node[44].nic.mac1609_4 TotalLostPackets 54
scalar RSUExampleScenario3.node[44].nic.mac1609_4 DroppedPacketsInMac 0
scalar RSUExampleScenario3.node[44].nic.mac1609_4 TooLittleTime 0
scalar RSUExampleScenario3.node[44].nic.mac1609_4 TimesIntoBackoff 2
scalar RSUExampleScenario3.node[44].nic.mac1609_4 SlotsBackoff 2
scalar RSUExampleScenario3.node[44].nic.mac1609_4 NumInternalContention 0
scalar RSUExampleScenario3.node[44].nic.mac1609_4 totalBusyTime 0.01090602136
scalar RSUExampleScenario3.node[44].nic.mac1609_4 retriesExceeded:count 0
attr source org_car2x_veins_modules_mac_sigRetriesExceeded
scalar RSUExampleScenario3.node[44].nic.mac1609_4 sentAcks:count 0
attr source org_car2x_veins_modules_mac_sigSentAck
scalar RSUExampleScenario3.node[44].nic.mac1609_4 sentPackets:count 2
attr source org_car2x_veins_modules_mac_sigSentPacket
scalar RSUExampleScenario3.node[44].nic.mac1609_4 collisions:count 0
attr source org_car2x_veins_modules_mac_sigCollision
scalar RSUExampleScenario3.node[44].nic.mac1609_4 channelBusy:timeavg 9.0132407933884e-05
attr source org_car2x_veins_modules_mac_sigChannelBusy
scalar RSUExampleScenario3.node[44].veinsmobility startTime 159
scalar RSUExampleScenario3.node[44].veinsmobility totalTime 120
scalar RSUExampleScenario3.node[44].veinsmobility stopTime 280
scalar RSUExampleScenario3.node[44].veinsmobility minSpeed 3.3065556068071
scalar RSUExampleScenario3.node[44].veinsmobility maxSpeed 29.427056830073
scalar RSUExampleScenario3.node[44].veinsmobility totalDistance 1990.6832768009
scalar RSUExampleScenario3.node[44].veinsmobility totalCO2Emission 466.28957497546
scalar RSUExampleScenario3.node[47].nic.phy80211p busyTime 0.00012306086956522
scalar RSUExampleScenario3.node[47].nic.mac1609_4 ReceivedUnicastPackets 0
scalar RSUExampleScenario3.node[47].nic.mac1609_4 ReceivedBroadcasts 11
scalar RSUExampleScenario3.node[47].nic.mac1609_4 SentPackets 2
scalar RSUExampleScenario3.node[47].nic.mac1609_4 SentAcknowledgements 0
scalar RSUExampleScenario3.node[47].nic.mac1609_4 RetriesExceeded 0
scalar RSUExampleScenario3.node[47].nic.mac1609_4 SNIRLostPackets 50
scalar RSUExampleScenario3.node[47].nic.mac1609_4 RXTXLostPackets 1
scalar RSUExampleScenario3.node[47].nic.mac1609_4 TotalLostPackets 51
scalar RSUExampleScenario3.node[47].nic.mac1609_4 DroppedPacketsInMac 0
scalar RSUExampleScenario3.node[47].nic.mac1609_4 TooLittleTime 0
scalar RSUExampleScenario3.node[47].nic.mac1609_4 TimesIntoBackoff 2
scalar RSUExampleScenario3.node[47].nic.mac1609_4 SlotsBackoff 3
scalar RSUExampleScenario3.node[47].nic.mac1609_4 NumInternalContention 0
scalar RSUExampleScenario3.node[47].nic.mac1609_4 totalBusyTime 0.010442010676
scalar RSUExampleScenario3.node[47].nic.mac1609_4 retriesExceeded:count 0
attr source org_car2x_veins_modules_mac_sigRetriesExceeded
scalar RSUExampleScenario3.node[47].nic.mac1609_4 sentAcks:count 0
attr source org_car2x_veins_modules_mac_sigSentAck
scalar RSUExampleScenario3.node[47].nic.mac1609_4 sentPackets:count 2
attr source org_car2x_veins_modules_mac_sigSentPacket
scalar RSUExampleScenario3.node[47].nic.mac1609_4 collisions:count 0
attr source org_car2x_veins_modules_mac_sigCollision
scalar RSUExampleScenario3.node[47].nic.mac1609_4 channelBusy:timeavg 9.0800092834783e-05
attr source org_car2x_veins_modules_mac_sigChannelBusy
scalar RSUExampleScenario3.node[47].veinsmobility startTime 166
scalar RSUExampleScenario3.node[47].veinsmobility totalTime 114
scalar RSUExampleScenario3.node[47].veinsmobility stopTime 281
scalar RSUExampleScenario3.node[47].veinsmobility minSpeed 2.84152351882
scalar RSUExampleScenario3.node[47].veinsmobility maxSpeed 27.215432538589
scalar RSUExampleScenario3.node[47].veinsmobility totalDistance 1988.4961259756
scalar RSUExampleScenario3.node[47].veinsmobility totalCO2Emission 456.87394197335
scalar RSUExampleScenario3.node[8].nic.phy80211p busyTime 0.0001287874015748
scalar RSUExampleScenario3.node[8].nic.mac1609_4 ReceivedUnicastPackets 0
scalar RSUExampleScenario3.node[8].nic.mac1609_4 ReceivedBroadcasts 14
scalar RSUExampleScenario3.node[8].nic.mac1609_4 SentPackets 2
scalar RSUExampleScenario3.node[8].nic.mac1609_4 SentAcknowledgements 0
scalar RSUExampleScenario3.node[8].nic.mac1609_4 RetriesExceeded 0
scalar RSUExampleScenario3.node[8].nic.mac1609_4 SNIRLostPackets 127
scalar RSUExampleScenario3.node[8].nic.mac1609_4 RXTXLostPackets 1
scalar RSUExampleScenario3.node[8].nic.mac1609_4 TotalLostPackets 128
scalar RSUExampleScenario3.node[8].nic.mac1609_4 DroppedPacketsInMac 0
scalar RSUExampleScenario3.node[8].nic.mac1609_4 TooLittleTime 0
scalar RSUExampleScenario3.node[8].nic.mac1609_4 TimesIntoBackoff 2
scalar RSUExampleScenario3.node[8].nic.mac1609_4 SlotsBackoff 3
scalar RSUExampleScenario3.node[8].nic.mac1609_4 NumInternalContention 0
scalar RSUExampleScenario3.node[8].nic.mac1609_4 totalBusyTime 0.023434010676
scalar RSUExampleScenario3.node[8].nic.mac1609_4 retriesExceeded:count 0
attr source org_car2x_veins_modules_mac_sigRetriesExceeded
scalar RSUExampleScenario3.node[8].nic.mac1609_4 sentAcks:count 0
attr source org_car2x_veins_modules_mac_sigSentAck
scalar RSUExampleScenario3.node[8].nic.mac1609_4 sentPackets:count 2
attr source org_car2x_veins_modules_mac_sigSentPacket
scalar RSUExampleScenario3.node[8].nic.mac1609_4 collisions:count 0
attr source org_car2x_veins_modules_mac_sigCollision
scalar RSUExampleScenario3.node[8].nic.mac1609_4 channelBusy:timeavg 9.2259884551181e-05
attr source org_car2x_veins_modules_mac_sigChannelBusy
scalar RSUExampleScenario3.node[8].veinsmobility startTime 29
scalar RSUExampleScenario3.node[8].veinsmobility totalTime 253
scalar RSUExampleScenario3.node[8].veinsmobility stopTime 283
scalar RSUExampleScenario3.node[8].veinsmobility minSpeed 2.509897900197
scalar RSUExampleScenario3.node[8].veinsmobility maxSpeed 7.9917203629837
scalar RSUExampleScenario3.node[8].veinsmobility totalDistance 1991.1038937171
scalar RSUExampleScenario3.node[8].veinsmobility totalCO2Emission 395.22700546282
scalar RSUExampleScenario3.node[45].nic.phy80211p busyTime 0.000126208
scalar RSUExampleScenario3.node[45].nic.mac1609_4 ReceivedUnicastPackets 0
scalar RSUExampleScenario3.node[45].nic.mac1609_4 ReceivedBroadcasts 10
scalar RSUExampleScenario3.node[45].nic.mac1609_4 SentPackets 2
scalar RSUExampleScenario3.node[45].nic.mac1609_4 SentAcknowledgements 0
scalar RSUExampleScenario3.node[45].nic.mac1609_4 RetriesExceeded 0
scalar RSUExampleScenario3.node[45].nic.mac1609_4 SNIRLostPackets 58
scalar RSUExampleScenario3.node[45].nic.mac1609_4 RXTXLostPackets 2
scalar RSUExampleScenario3.node[45].nic.mac1609_4 TotalLostPackets 60
scalar RSUExampleScenario3.node[45].nic.mac1609_4 DroppedPacketsInMac 0
scalar RSUExampleScenario3.node[45].nic.mac1609_4 TooLittleTime 0
scalar RSUExampleScenario3.node[45].nic.mac1609_4 TimesIntoBackoff 2
scalar RSUExampleScenario3.node[45].nic.mac1609_4 SlotsBackoff 1
scalar RSUExampleScenario3.node[45].nic.mac1609_4 NumInternalContention 0
scalar RSUExampleScenario3.node[45].nic.mac1609_4 totalBusyTime 0.01160202136
scalar RSUExampleScenario3.node[45].nic.mac1609_4 retriesExceeded:count 0
attr source org_car2x_veins_modules_mac_sigRetriesExceeded
scalar RSUExampleScenario3.node[45].nic.mac1609_4 sentAcks:count 0
attr source org_car2x_veins_modules_mac_sigSentAck
scalar RSUExampleScenario3.node[45].nic.mac1609_4 sentPackets:count 2
attr source org_car2x_veins_modules_mac_sigSentPacket
scalar RSUExampleScenario3.node[45].nic.mac1609_4 collisions:count 0
attr source org_car2x_veins_modules_mac_sigCollision
scalar RSUExampleScenario3.node[45].nic.mac1609_4 channelBusy:timeavg 9.281617088e-05
attr source org_car2x_veins_modules_mac_sigChannelBusy
scalar RSUExampleScenario3.node[45].veinsmobility startTime 159
scalar RSUExampleScenario3.node[45].veinsmobility totalTime 124
scalar RSUExampleScenario3.node[45].veinsmobility stopTime 284
scalar RSUExampleScenario3.node[45].veinsmobility minSpeed 3.2523141263541
scalar RSUExampleScenario3.node[45].veinsmobility maxSpeed 19.624383974966
scalar RSUExampleScenario3.node[45].veinsmobility totalDistance 1986.7290759097
[...]
scalar RSUExampleScenario3.node[993].nic.mac1609_4 ReceivedBroadcasts 9
scalar RSUExampleScenario3.node[993].nic.mac1609_4 SentPackets 2
scalar RSUExampleScenario3.node[993].nic.mac1609_4 SentAcknowledgements 0
scalar RSUExampleScenario3.node[993].nic.mac1609_4 RetriesExceeded 0
scalar RSUExampleScenario3.node[993].nic.mac1609_4 SNIRLostPackets 8
scalar RSUExampleScenario3.node[993].nic.mac1609_4 RXTXLostPackets 1
scalar RSUExampleScenario3.node[993].nic.mac1609_4 TotalLostPackets 9
scalar RSUExampleScenario3.node[993].nic.mac1609_4 DroppedPacketsInMac 0
scalar RSUExampleScenario3.node[993].nic.mac1609_4 TooLittleTime 0
scalar RSUExampleScenario3.node[993].nic.mac1609_4 TimesIntoBackoff 2
scalar RSUExampleScenario3.node[993].nic.mac1609_4 SlotsBackoff 1
scalar RSUExampleScenario3.node[993].nic.mac1609_4 NumInternalContention 0
scalar RSUExampleScenario3.node[993].nic.mac1609_4 totalBusyTime 0.003482010675
scalar RSUExampleScenario3.node[993].nic.mac1609_4 retriesExceeded:count 0
attr source org_car2x_veins_modules_mac_sigRetriesExceeded
scalar RSUExampleScenario3.node[993].nic.mac1609_4 sentAcks:count 0
attr source org_car2x_veins_modules_mac_sigSentAck
scalar RSUExampleScenario3.node[993].nic.mac1609_4 sentPackets:count 2
attr source org_car2x_veins_modules_mac_sigSentPacket
scalar RSUExampleScenario3.node[993].nic.mac1609_4 collisions:count 0
attr source org_car2x_veins_modules_mac_sigCollision
scalar RSUExampleScenario3.node[993].nic.mac1609_4 channelBusy:timeavg 9.9486019285714e-05
attr source org_car2x_veins_modules_mac_sigChannelBusy
scalar RSUExampleScenario3.node[993].veinsmobility startTime 3565
scalar RSUExampleScenario3.node[993].veinsmobility totalTime 35
scalar RSUExampleScenario3.node[993].veinsmobility stopTime 3600
scalar RSUExampleScenario3.node[993].veinsmobility minSpeed 4.0550344441249
scalar RSUExampleScenario3.node[993].veinsmobility maxSpeed 31.716069923022
scalar RSUExampleScenario3.node[993].veinsmobility totalDistance 567.46928633151
scalar RSUExampleScenario3.node[993].veinsmobility totalCO2Emission 264.84549309791
scalar RSUExampleScenario3.node[994].nic.phy80211p busyTime 0.00010771428571429
scalar RSUExampleScenario3.node[994].nic.mac1609_4 ReceivedUnicastPackets 0
scalar RSUExampleScenario3.node[994].nic.mac1609_4 ReceivedBroadcasts 7
scalar RSUExampleScenario3.node[994].nic.mac1609_4 SentPackets 2
scalar RSUExampleScenario3.node[994].nic.mac1609_4 SentAcknowledgements 0
scalar RSUExampleScenario3.node[994].nic.mac1609_4 RetriesExceeded 0
scalar RSUExampleScenario3.node[994].nic.mac1609_4 SNIRLostPackets 6
scalar RSUExampleScenario3.node[994].nic.mac1609_4 RXTXLostPackets 1
scalar RSUExampleScenario3.node[994].nic.mac1609_4 TotalLostPackets 7
scalar RSUExampleScenario3.node[994].nic.mac1609_4 DroppedPacketsInMac 0
scalar RSUExampleScenario3.node[994].nic.mac1609_4 TooLittleTime 0
scalar RSUExampleScenario3.node[994].nic.mac1609_4 TimesIntoBackoff 2
scalar RSUExampleScenario3.node[994].nic.mac1609_4 SlotsBackoff 5
scalar RSUExampleScenario3.node[994].nic.mac1609_4 NumInternalContention 0
scalar RSUExampleScenario3.node[994].nic.mac1609_4 totalBusyTime 0.002786010674
scalar RSUExampleScenario3.node[994].nic.mac1609_4 retriesExceeded:count 0
attr source org_car2x_veins_modules_mac_sigRetriesExceeded
scalar RSUExampleScenario3.node[994].nic.mac1609_4 sentAcks:count 0
attr source org_car2x_veins_modules_mac_sigSentAck
scalar RSUExampleScenario3.node[994].nic.mac1609_4 sentPackets:count 2
attr source org_car2x_veins_modules_mac_sigSentPacket
scalar RSUExampleScenario3.node[994].nic.mac1609_4 collisions:count 0
attr source org_car2x_veins_modules_mac_sigCollision
scalar RSUExampleScenario3.node[994].nic.mac1609_4 channelBusy:timeavg 9.9500381214286e-05
attr source org_car2x_veins_modules_mac_sigChannelBusy
scalar RSUExampleScenario3.node[994].veinsmobility startTime 3572
scalar RSUExampleScenario3.node[994].veinsmobility totalTime 28
scalar RSUExampleScenario3.node[994].veinsmobility stopTime 3600
scalar RSUExampleScenario3.node[994].veinsmobility minSpeed 3.4393012469159
scalar RSUExampleScenario3.node[994].veinsmobility maxSpeed 17.637531202654
scalar RSUExampleScenario3.node[994].veinsmobility totalDistance 420.47486622614
scalar RSUExampleScenario3.node[994].veinsmobility totalCO2Emission 109.78276361166
scalar RSUExampleScenario3.node[995].nic.phy80211p busyTime 0.00010771428571429
scalar RSUExampleScenario3.node[995].nic.mac1609_4 ReceivedUnicastPackets 0
scalar RSUExampleScenario3.node[995].nic.mac1609_4 ReceivedBroadcasts 7
scalar RSUExampleScenario3.node[995].nic.mac1609_4 SentPackets 2
scalar RSUExampleScenario3.node[995].nic.mac1609_4 SentAcknowledgements 0
scalar RSUExampleScenario3.node[995].nic.mac1609_4 RetriesExceeded 0
scalar RSUExampleScenario3.node[995].nic.mac1609_4 SNIRLostPackets 6
scalar RSUExampleScenario3.node[995].nic.mac1609_4 RXTXLostPackets 1
scalar RSUExampleScenario3.node[995].nic.mac1609_4 TotalLostPackets 7
scalar RSUExampleScenario3.node[995].nic.mac1609_4 DroppedPacketsInMac 0
scalar RSUExampleScenario3.node[995].nic.mac1609_4 TooLittleTime 0
scalar RSUExampleScenario3.node[995].nic.mac1609_4 TimesIntoBackoff 2
scalar RSUExampleScenario3.node[995].nic.mac1609_4 SlotsBackoff 3
scalar RSUExampleScenario3.node[995].nic.mac1609_4 NumInternalContention 0
scalar RSUExampleScenario3.node[995].nic.mac1609_4 totalBusyTime 0.002786010674
scalar RSUExampleScenario3.node[995].nic.mac1609_4 retriesExceeded:count 0
attr source org_car2x_veins_modules_mac_sigRetriesExceeded
scalar RSUExampleScenario3.node[995].nic.mac1609_4 sentAcks:count 0
attr source org_car2x_veins_modules_mac_sigSentAck
scalar RSUExampleScenario3.node[995].nic.mac1609_4 sentPackets:count 2
attr source org_car2x_veins_modules_mac_sigSentPacket
scalar RSUExampleScenario3.node[995].nic.mac1609_4 collisions:count 0
attr source org_car2x_veins_modules_mac_sigCollision
scalar RSUExampleScenario3.node[995].nic.mac1609_4 channelBusy:timeavg 9.9500381214286e-05
attr source org_car2x_veins_modules_mac_sigChannelBusy
scalar RSUExampleScenario3.node[995].veinsmobility startTime 3572
scalar RSUExampleScenario3.node[995].veinsmobility totalTime 28
scalar RSUExampleScenario3.node[995].veinsmobility stopTime 3600
scalar RSUExampleScenario3.node[995].veinsmobility minSpeed 3.6137985783804
scalar RSUExampleScenario3.node[995].veinsmobility maxSpeed 26.03151887978
scalar RSUExampleScenario3.node[995].veinsmobility totalDistance 525.40670206841
scalar RSUExampleScenario3.node[995].veinsmobility totalCO2Emission 191.66551609814
scalar RSUExampleScenario3.node[996].nic.phy80211p busyTime 9.9428571428571e-05
scalar RSUExampleScenario3.node[996].nic.mac1609_4 ReceivedUnicastPackets 0
scalar RSUExampleScenario3.node[996].nic.mac1609_4 ReceivedBroadcasts 5
scalar RSUExampleScenario3.node[996].nic.mac1609_4 SentPackets 2
scalar RSUExampleScenario3.node[996].nic.mac1609_4 SentAcknowledgements 0
scalar RSUExampleScenario3.node[996].nic.mac1609_4 RetriesExceeded 0
scalar RSUExampleScenario3.node[996].nic.mac1609_4 SNIRLostPackets 4
scalar RSUExampleScenario3.node[996].nic.mac1609_4 RXTXLostPackets 1
scalar RSUExampleScenario3.node[996].nic.mac1609_4 TotalLostPackets 5
scalar RSUExampleScenario3.node[996].nic.mac1609_4 DroppedPacketsInMac 0
scalar RSUExampleScenario3.node[996].nic.mac1609_4 TooLittleTime 0
scalar RSUExampleScenario3.node[996].nic.mac1609_4 TimesIntoBackoff 2
scalar RSUExampleScenario3.node[996].nic.mac1609_4 SlotsBackoff 2
scalar RSUExampleScenario3.node[996].nic.mac1609_4 NumInternalContention 0
scalar RSUExampleScenario3.node[996].nic.mac1609_4 totalBusyTime 0.002090010684
scalar RSUExampleScenario3.node[996].nic.mac1609_4 retriesExceeded:count 0
attr source org_car2x_veins_modules_mac_sigRetriesExceeded
scalar RSUExampleScenario3.node[996].nic.mac1609_4 sentAcks:count 0
attr source org_car2x_veins_modules_mac_sigSentAck
scalar RSUExampleScenario3.node[996].nic.mac1609_4 sentPackets:count 2
attr source org_car2x_veins_modules_mac_sigSentPacket
scalar RSUExampleScenario3.node[996].nic.mac1609_4 collisions:count 0
attr source org_car2x_veins_modules_mac_sigCollision
scalar RSUExampleScenario3.node[996].nic.mac1609_4 channelBusy:timeavg 9.9524318285714e-05
attr source org_car2x_veins_modules_mac_sigChannelBusy
scalar RSUExampleScenario3.node[996].veinsmobility startTime 3579
scalar RSUExampleScenario3.node[996].veinsmobility totalTime 21
scalar RSUExampleScenario3.node[996].veinsmobility stopTime 3600
scalar RSUExampleScenario3.node[996].veinsmobility minSpeed 3.3759886958917
scalar RSUExampleScenario3.node[996].veinsmobility maxSpeed 23.678663913729
scalar RSUExampleScenario3.node[996].veinsmobility totalDistance 346.08308461509
scalar RSUExampleScenario3.node[996].veinsmobility totalCO2Emission 140.55358556726
scalar RSUExampleScenario3.node[997].nic.phy80211p busyTime 9.9428571428571e-05
scalar RSUExampleScenario3.node[997].nic.mac1609_4 ReceivedUnicastPackets 0
scalar RSUExampleScenario3.node[997].nic.mac1609_4 ReceivedBroadcasts 5
scalar RSUExampleScenario3.node[997].nic.mac1609_4 SentPackets 2
scalar RSUExampleScenario3.node[997].nic.mac1609_4 SentAcknowledgements 0
scalar RSUExampleScenario3.node[997].nic.mac1609_4 RetriesExceeded 0
scalar RSUExampleScenario3.node[997].nic.mac1609_4 SNIRLostPackets 4
scalar RSUExampleScenario3.node[997].nic.mac1609_4 RXTXLostPackets 1
scalar RSUExampleScenario3.node[997].nic.mac1609_4 TotalLostPackets 5
scalar RSUExampleScenario3.node[997].nic.mac1609_4 DroppedPacketsInMac 0
scalar RSUExampleScenario3.node[997].nic.mac1609_4 TooLittleTime 0
scalar RSUExampleScenario3.node[997].nic.mac1609_4 TimesIntoBackoff 2
scalar RSUExampleScenario3.node[997].nic.mac1609_4 SlotsBackoff 4
scalar RSUExampleScenario3.node[997].nic.mac1609_4 NumInternalContention 0
scalar RSUExampleScenario3.node[997].nic.mac1609_4 totalBusyTime 0.002090010684
scalar RSUExampleScenario3.node[997].nic.mac1609_4 retriesExceeded:count 0
attr source org_car2x_veins_modules_mac_sigRetriesExceeded
scalar RSUExampleScenario3.node[997].nic.mac1609_4 sentAcks:count 0
attr source org_car2x_veins_modules_mac_sigSentAck
scalar RSUExampleScenario3.node[997].nic.mac1609_4 sentPackets:count 2
attr source org_car2x_veins_modules_mac_sigSentPacket
scalar RSUExampleScenario3.node[997].nic.mac1609_4 collisions:count 0
attr source org_car2x_veins_modules_mac_sigCollision
scalar RSUExampleScenario3.node[997].nic.mac1609_4 channelBusy:timeavg 9.9524318285714e-05
attr source org_car2x_veins_modules_mac_sigChannelBusy
scalar RSUExampleScenario3.node[997].veinsmobility startTime 3579
scalar RSUExampleScenario3.node[997].veinsmobility totalTime 21
scalar RSUExampleScenario3.node[997].veinsmobility stopTime 3600
scalar RSUExampleScenario3.node[997].veinsmobility minSpeed 3.2606124012744
scalar RSUExampleScenario3.node[997].veinsmobility maxSpeed 24.34416127131
scalar RSUExampleScenario3.node[997].veinsmobility totalDistance 371.43146697864
scalar RSUExampleScenario3.node[997].veinsmobility totalCO2Emission 123.64402946947
scalar RSUExampleScenario3.node[998].nic.phy80211p busyTime 8.2857142857143e-05
scalar RSUExampleScenario3.node[998].nic.mac1609_4 ReceivedUnicastPackets 0
scalar RSUExampleScenario3.node[998].nic.mac1609_4 ReceivedBroadcasts 3
scalar RSUExampleScenario3.node[998].nic.mac1609_4 SentPackets 2
scalar RSUExampleScenario3.node[998].nic.mac1609_4 SentAcknowledgements 0
scalar RSUExampleScenario3.node[998].nic.mac1609_4 RetriesExceeded 0
scalar RSUExampleScenario3.node[998].nic.mac1609_4 SNIRLostPackets 2
scalar RSUExampleScenario3.node[998].nic.mac1609_4 RXTXLostPackets 1
scalar RSUExampleScenario3.node[998].nic.mac1609_4 TotalLostPackets 3
scalar RSUExampleScenario3.node[998].nic.mac1609_4 DroppedPacketsInMac 0
scalar RSUExampleScenario3.node[998].nic.mac1609_4 TooLittleTime 0
scalar RSUExampleScenario3.node[998].nic.mac1609_4 TimesIntoBackoff 2
scalar RSUExampleScenario3.node[998].nic.mac1609_4 SlotsBackoff 4
scalar RSUExampleScenario3.node[998].nic.mac1609_4 NumInternalContention 0
scalar RSUExampleScenario3.node[998].nic.mac1609_4 totalBusyTime 0.001394010674
scalar RSUExampleScenario3.node[998].nic.mac1609_4 retriesExceeded:count 0
attr source org_car2x_veins_modules_mac_sigRetriesExceeded
scalar RSUExampleScenario3.node[998].nic.mac1609_4 sentAcks:count 0
attr source org_car2x_veins_modules_mac_sigSentAck
scalar RSUExampleScenario3.node[998].nic.mac1609_4 sentPackets:count 2
attr source org_car2x_veins_modules_mac_sigSentPacket
scalar RSUExampleScenario3.node[998].nic.mac1609_4 collisions:count 0
attr source org_car2x_veins_modules_mac_sigCollision
scalar RSUExampleScenario3.node[998].nic.mac1609_4 channelBusy:timeavg 9.9572191e-05
attr source org_car2x_veins_modules_mac_sigChannelBusy
scalar RSUExampleScenario3.node[998].veinsmobility startTime 3586
scalar RSUExampleScenario3.node[998].veinsmobility totalTime 14
scalar RSUExampleScenario3.node[998].veinsmobility stopTime 3600
scalar RSUExampleScenario3.node[998].veinsmobility minSpeed 2.7836988627675
scalar RSUExampleScenario3.node[998].veinsmobility maxSpeed 18.010194324951
scalar RSUExampleScenario3.node[998].veinsmobility totalDistance 179.21897943141
scalar RSUExampleScenario3.node[998].veinsmobility totalCO2Emission 69.06244487125
scalar RSUExampleScenario3.node[999].nic.phy80211p busyTime 8.2857142857143e-05
scalar RSUExampleScenario3.node[999].nic.mac1609_4 ReceivedUnicastPackets 0
scalar RSUExampleScenario3.node[999].nic.mac1609_4 ReceivedBroadcasts 3
scalar RSUExampleScenario3.node[999].nic.mac1609_4 SentPackets 2
scalar RSUExampleScenario3.node[999].nic.mac1609_4 SentAcknowledgements 0
scalar RSUExampleScenario3.node[999].nic.mac1609_4 RetriesExceeded 0
scalar RSUExampleScenario3.node[999].nic.mac1609_4 SNIRLostPackets 2
scalar RSUExampleScenario3.node[999].nic.mac1609_4 RXTXLostPackets 1
scalar RSUExampleScenario3.node[999].nic.mac1609_4 TotalLostPackets 3
scalar RSUExampleScenario3.node[999].nic.mac1609_4 DroppedPacketsInMac 0
scalar RSUExampleScenario3.node[999].nic.mac1609_4 TooLittleTime 0
scalar RSUExampleScenario3.node[999].nic.mac1609_4 TimesIntoBackoff 2
scalar RSUExampleScenario3.node[999].nic.mac1609_4 SlotsBackoff 1
scalar RSUExampleScenario3.node[999].nic.mac1609_4 NumInternalContention 0
scalar RSUExampleScenario3.node[999].nic.mac1609_4 totalBusyTime 0.001394010674
scalar RSUExampleScenario3.node[999].nic.mac1609_4 retriesExceeded:count 0
attr source org_car2x_veins_modules_mac_sigRetriesExceeded
scalar RSUExampleScenario3.node[999].nic.mac1609_4 sentAcks:count 0
attr source org_car2x_veins_modules_mac_sigSentAck
scalar RSUExampleScenario3.node[999].nic.mac1609_4 sentPackets:count 2
attr source org_car2x_veins_modules_mac_sigSentPacket
scalar RSUExampleScenario3.node[999].nic.mac1609_4 collisions:count 0
attr source org_car2x_veins_modules_mac_sigCollision
scalar RSUExampleScenario3.node[999].nic.mac1609_4 channelBusy:timeavg 9.9572191e-05
attr source org_car2x_veins_modules_mac_sigChannelBusy
scalar RSUExampleScenario3.node[999].veinsmobility startTime 3586
scalar RSUExampleScenario3.node[999].veinsmobility totalTime 14
scalar RSUExampleScenario3.node[999].veinsmobility stopTime 3600
scalar RSUExampleScenario3.node[999].veinsmobility minSpeed 2.785907026021
scalar RSUExampleScenario3.node[999].veinsmobility maxSpeed 16.057557542061
scalar RSUExampleScenario3.node[999].veinsmobility totalDistance 164.51514789577
scalar RSUExampleScenario3.node[999].veinsmobility totalCO2Emission 58.78059038057
scalar RSUExampleScenario3.node[1000].nic.phy80211p busyTime 3.3142857142857e-05
scalar RSUExampleScenario3.node[1000].nic.mac1609_4 ReceivedUnicastPackets 0
scalar RSUExampleScenario3.node[1000].nic.mac1609_4 ReceivedBroadcasts 1
scalar RSUExampleScenario3.node[1000].nic.mac1609_4 SentPackets 2
scalar RSUExampleScenario3.node[1000].nic.mac1609_4 SentAcknowledgements 0
scalar RSUExampleScenario3.node[1000].nic.mac1609_4 RetriesExceeded 0
scalar RSUExampleScenario3.node[1000].nic.mac1609_4 SNIRLostPackets 0
scalar RSUExampleScenario3.node[1000].nic.mac1609_4 RXTXLostPackets 1
scalar RSUExampleScenario3.node[1000].nic.mac1609_4 TotalLostPackets 1
scalar RSUExampleScenario3.node[1000].nic.mac1609_4 DroppedPacketsInMac 0
scalar RSUExampleScenario3.node[1000].nic.mac1609_4 TooLittleTime 0
scalar RSUExampleScenario3.node[1000].nic.mac1609_4 TimesIntoBackoff 2
scalar RSUExampleScenario3.node[1000].nic.mac1609_4 SlotsBackoff 3
scalar RSUExampleScenario3.node[1000].nic.mac1609_4 NumInternalContention 0
scalar RSUExampleScenario3.node[1000].nic.mac1609_4 totalBusyTime 0.000698010674
scalar RSUExampleScenario3.node[1000].nic.mac1609_4 retriesExceeded:count 0
attr source org_car2x_veins_modules_mac_sigRetriesExceeded
scalar RSUExampleScenario3.node[1000].nic.mac1609_4 sentAcks:count 0
attr source org_car2x_veins_modules_mac_sigSentAck
scalar RSUExampleScenario3.node[1000].nic.mac1609_4 sentPackets:count 2
attr source org_car2x_veins_modules_mac_sigSentPacket
scalar RSUExampleScenario3.node[1000].nic.mac1609_4 collisions:count 0
attr source org_car2x_veins_modules_mac_sigCollision
scalar RSUExampleScenario3.node[1000].nic.mac1609_4 channelBusy:timeavg 9.9715810571429e-05
attr source org_car2x_veins_modules_mac_sigChannelBusy
scalar RSUExampleScenario3.node[1000].veinsmobility startTime 3593
scalar RSUExampleScenario3.node[1000].veinsmobility totalTime 7
scalar RSUExampleScenario3.node[1000].veinsmobility stopTime 3600
scalar RSUExampleScenario3.node[1000].veinsmobility minSpeed 2.5537700418587
scalar RSUExampleScenario3.node[1000].veinsmobility maxSpeed 13.031966548349
scalar RSUExampleScenario3.node[1000].veinsmobility totalDistance 51.296531515828
scalar RSUExampleScenario3.node[1000].veinsmobility totalCO2Emission 31.829171983521
scalar RSUExampleScenario3.node[1001].nic.phy80211p busyTime 3.3142857142857e-05
scalar RSUExampleScenario3.node[1001].nic.mac1609_4 ReceivedUnicastPackets 0
scalar RSUExampleScenario3.node[1001].nic.mac1609_4 ReceivedBroadcasts 1
scalar RSUExampleScenario3.node[1001].nic.mac1609_4 SentPackets 2
scalar RSUExampleScenario3.node[1001].nic.mac1609_4 SentAcknowledgements 0
scalar RSUExampleScenario3.node[1001].nic.mac1609_4 RetriesExceeded 0
scalar RSUExampleScenario3.node[1001].nic.mac1609_4 SNIRLostPackets 0
scalar RSUExampleScenario3.node[1001].nic.mac1609_4 RXTXLostPackets 1
scalar RSUExampleScenario3.node[1001].nic.mac1609_4 TotalLostPackets 1
scalar RSUExampleScenario3.node[1001].nic.mac1609_4 DroppedPacketsInMac 0
scalar RSUExampleScenario3.node[1001].nic.mac1609_4 TooLittleTime 0
scalar RSUExampleScenario3.node[1001].nic.mac1609_4 TimesIntoBackoff 2
scalar RSUExampleScenario3.node[1001].nic.mac1609_4 SlotsBackoff 3
scalar RSUExampleScenario3.node[1001].nic.mac1609_4 NumInternalContention 0
scalar RSUExampleScenario3.node[1001].nic.mac1609_4 totalBusyTime 0.000698010674
scalar RSUExampleScenario3.node[1001].nic.mac1609_4 retriesExceeded:count 0
attr source org_car2x_veins_modules_mac_sigRetriesExceeded
scalar RSUExampleScenario3.node[1001].nic.mac1609_4 sentAcks:count 0
attr source org_car2x_veins_modules_mac_sigSentAck
scalar RSUExampleScenario3.node[1001].nic.mac1609_4 sentPackets:count 2
attr source org_car2x_veins_modules_mac_sigSentPacket
scalar RSUExampleScenario3.node[1001].nic.mac1609_4 collisions:count 0
attr source org_car2x_veins_modules_mac_sigCollision
scalar RSUExampleScenario3.node[1001].nic.mac1609_4 channelBusy:timeavg 9.9715810571429e-05
attr source org_car2x_veins_modules_mac_sigChannelBusy
scalar RSUExampleScenario3.node[1001].veinsmobility startTime 3593
scalar RSUExampleScenario3.node[1001].veinsmobility totalTime 7
scalar RSUExampleScenario3.node[1001].veinsmobility stopTime 3600
scalar RSUExampleScenario3.node[1001].veinsmobility minSpeed 2.5437148297483
scalar RSUExampleScenario3.node[1001].veinsmobility maxSpeed 7.1202996460383
scalar RSUExampleScenario3.node[1001].veinsmobility totalDistance 38.960935760186
scalar RSUExampleScenario3.node[1001].veinsmobility totalCO2Emission 15.024316372341

