file 22963 1743071971                                           
version 2
run General-0-20250327-10:39:18-211237
attr configname General
attr datetime 20250327-10:39:18
attr experiment General
attr inifile omnetpp.ini
attr iterationvars ""
attr iterationvarsf ""
attr measurement ""
attr network vasp.scenario.DefconScenario
attr processid 211237
attr repetition 0
attr replication #0
attr resultdir results
attr runnumber 0
attr seedset 0
param *.playgroundSizeX 5000m
param *.playgroundSizeY 5000m
param *.playgroundSizeZ 50m
param *.annotations.draw true
param *.manager.updateInterval 1s
param *.manager.host "\"localhost\""
param *.manager.port 9999
param *.manager.autoShutdown true
param *.manager.launchConfig "xmldoc(\"boston.launchd.xml\")"
param *.rsu[0].mobility.x 1200
param *.rsu[0].mobility.y 200
param *.rsu[0].mobility.z 3
param *.rsu[*].applType "\"TraCIDemoRSU11p\""
param *.rsu[*].appl.headerLength "80 bit"
param *.rsu[*].appl.sendBeacons true
param *.rsu[*].appl.dataOnSch false
param *.rsu[*].appl.beaconInterval 1s
param *.rsu[*].appl.beaconUserPriority 7
param *.rsu[*].appl.dataUserPriority 5
param *.rsu[*].nic.phy80211p.antennaOffsetZ "0 m"
param *.connectionManager.sendDirect true
param *.connectionManager.maxInterfDist 2600m
param *.connectionManager.drawMaxIntfDist false
param *.**.nic.mac1609_4.useServiceChannel false
param *.**.nic.mac1609_4.txPower 20mW
param *.**.nic.mac1609_4.bitrate 6Mbps
param *.**.nic.phy80211p.minPowerLevel -110dBm
param *.**.nic.phy80211p.useNoiseFloor true
param *.**.nic.phy80211p.noiseFloor -98dBm
param *.**.nic.phy80211p.decider "xmldoc(\"../../../examples/veins/config.xml\")"
param *.**.nic.phy80211p.analogueModels "xmldoc(\"../../../examples/veins/config.xml\")"
param *.**.nic.phy80211p.usePropagationDelay true
param *.**.nic.phy80211p.antenna "xmldoc(\"../../../examples/veins/antenna.xml\", \"/root/Antenna[@id='monopole']\")"
param *.node[*].nic.phy80211p.antennaOffsetY "0 m"
param *.node[*].nic.phy80211p.antennaOffsetZ "1.895 m"
param *.node[*].applType "\"CarApp\""
param *.node[*].appl.headerLength "80 bit"
param *.node[*].appl.sendBeacons true
param *.node[*].appl.dataOnSch false
param *.node[*].appl.beaconInterval 0.1s
param *.node[*].appl.runID "\"General-0-20250327-10:39:18-211237\""
param *.node[*].veinsmobility.x 0
param *.node[*].veinsmobility.y 0
param *.node[*].veinsmobility.z 0
param *.node[*].veinsmobility.setHostSpeed false
param *.node[*0].veinsmobility.accidentCount 1
param *.node[*0].veinsmobility.accidentStart 73s
param *.node[*0].veinsmobility.accidentDuration 50s
param **.traceManager.filepath "\"results/rxtrace-General-0-20250327-10:39:18-211237.csv\""
param *.node[*].appl.attackPolicy 1
param *.node[*].appl.sporadicInsertionRate 0.6
param *.node[*].appl.maliciousProbability 0.5
param *.node[*].appl.attackType 9
param *.node[*].appl.nDosMessages 4
param *.node[*].appl.speedAttackOffset 10mps

vector 0 DefconScenario.node[0].veinsmobility posx ETV
vector 1 DefconScenario.node[0].veinsmobility posy ETV
vector 2 DefconScenario.node[0].veinsmobility speed ETV
vector 3 DefconScenario.node[1].veinsmobility posx ETV
vector 4 DefconScenario.node[1].veinsmobility posy ETV
vector 5 DefconScenario.node[0].veinsmobility acceleration ETV
vector 6 DefconScenario.node[0].veinsmobility co2emission ETV
vector 7 DefconScenario.node[1].veinsmobility speed ETV
vector 8 DefconScenario.node[1].veinsmobility acceleration ETV
vector 9 DefconScenario.node[1].veinsmobility co2emission ETV
6	3429 1999 9311 83438 902 973 72 0.973 18.465947333739 439.76028377193 3427.8521947154
5	5428 2141 9311 83438 902 973 72 -4.5 2.0791135100531 21.209670883855 71.297173747034
2	7569 2029 9156 83438 901 973 73 4.1783900467449 29.936007865935 1996.1579497146 57351.65374066
1	9598 1255 9001 83438 900 973 74 20.2 20.2 1494.8 30194.96
0	10853 2060 9001 83438 900 973 74 31.162333637945 2017.0814161518 69744.313482866 93995255.579534
9	12913 2119 11311 87333 904 979 76 3.7958174285954 17.5989847874 417.03291108976 2907.4732170524
8	15032 2279 11311 87333 904 979 76 -0.10080189302331 2.1269893481047 25.248089161377 49.403291111302
7	17311 2147 10291 87333 903 979 77 2.8585373363743 28.112122686685 1983.768878055 53784.551738545
4	19458 1325 9311 87333 902 979 78 20.2 20.2 1575.6 31827.12
3	20783 2179 9311 87333 902 979 78 30.253137847226 2001.4659435511 72857.004584855 97338811.84732

