version 2
run General-0-20250327-10:39:18-211237
attr configname General
attr datetime 20250327-10:39:18
attr experiment General
attr inifile omnetpp.ini
attr iterationvars ""
attr iterationvarsf ""
attr measurement ""
attr network vasp.scenario.DefconScenario
attr processid 211237
attr repetition 0
attr replication #0
attr resultdir results
attr runnumber 0
attr seedset 0
param *.playgroundSizeX 5000m
param *.playgroundSizeY 5000m
param *.playgroundSizeZ 50m
param *.annotations.draw true
param *.manager.updateInterval 1s
param *.manager.host "\"localhost\""
param *.manager.port 9999
param *.manager.autoShutdown true
param *.manager.launchConfig "xmldoc(\"boston.launchd.xml\")"
param *.rsu[0].mobility.x 1200
param *.rsu[0].mobility.y 200
param *.rsu[0].mobility.z 3
param *.rsu[*].applType "\"TraCIDemoRSU11p\""
param *.rsu[*].appl.headerLength "80 bit"
param *.rsu[*].appl.sendBeacons true
param *.rsu[*].appl.dataOnSch false
param *.rsu[*].appl.beaconInterval 1s
param *.rsu[*].appl.beaconUserPriority 7
param *.rsu[*].appl.dataUserPriority 5
param *.rsu[*].nic.phy80211p.antennaOffsetZ "0 m"
param *.connectionManager.sendDirect true
param *.connectionManager.maxInterfDist 2600m
param *.connectionManager.drawMaxIntfDist false
param *.**.nic.mac1609_4.useServiceChannel false
param *.**.nic.mac1609_4.txPower 20mW
param *.**.nic.mac1609_4.bitrate 6Mbps
param *.**.nic.phy80211p.minPowerLevel -110dBm
param *.**.nic.phy80211p.useNoiseFloor true
param *.**.nic.phy80211p.noiseFloor -98dBm
param *.**.nic.phy80211p.decider "xmldoc(\"../../../examples/veins/config.xml\")"
param *.**.nic.phy80211p.analogueModels "xmldoc(\"../../../examples/veins/config.xml\")"
param *.**.nic.phy80211p.usePropagationDelay true
param *.**.nic.phy80211p.antenna "xmldoc(\"../../../examples/veins/antenna.xml\", \"/root/Antenna[@id='monopole']\")"
param *.node[*].nic.phy80211p.antennaOffsetY "0 m"
param *.node[*].nic.phy80211p.antennaOffsetZ "1.895 m"
param *.node[*].applType "\"CarApp\""
param *.node[*].appl.headerLength "80 bit"
param *.node[*].appl.sendBeacons true
param *.node[*].appl.dataOnSch false
param *.node[*].appl.beaconInterval 0.1s
param *.node[*].appl.runID "\"General-0-20250327-10:39:18-211237\""
param *.node[*].veinsmobility.x 0
param *.node[*].veinsmobility.y 0
param *.node[*].veinsmobility.z 0
param *.node[*].veinsmobility.setHostSpeed false
param *.node[*0].veinsmobility.accidentCount 1
param *.node[*0].veinsmobility.accidentStart 73s
param *.node[*0].veinsmobility.accidentDuration 50s
param **.traceManager.filepath "\"results/rxtrace-General-0-20250327-10:39:18-211237.csv\""
param *.node[*].appl.attackPolicy 1
param *.node[*].appl.sporadicInsertionRate 0.6
param *.node[*].appl.maliciousProbability 0.5
param *.node[*].appl.attackType 9
param *.node[*].appl.nDosMessages 4
param *.node[*].appl.speedAttackOffset 10mps

vector 0 DefconScenario.node[0].veinsmobility posx ETV
vector 1 DefconScenario.node[0].veinsmobility posy ETV
vector 2 DefconScenario.node[0].veinsmobility speed ETV
vector 3 DefconScenario.node[1].veinsmobility posx ETV
vector 4 DefconScenario.node[1].veinsmobility posy ETV
vector 5 DefconScenario.node[0].veinsmobility acceleration ETV
vector 6 DefconScenario.node[0].veinsmobility co2emission ETV
vector 7 DefconScenario.node[1].veinsmobility speed ETV
vector 8 DefconScenario.node[1].veinsmobility acceleration ETV
vector 9 DefconScenario.node[1].veinsmobility co2emission ETV
6	9311	902	4.3051415950089
6	10291	903	5.1812922246763
6	11311	904	6.318824863351
6	12331	905	7.5051929014414
6	13351	906	8.8495434494764
6	14371	907	10.292999013138
6	15391	908	11.561644598158
6	16411	909	12.902607757933
6	17431	910	12.981141981127
6	18451	911	15.36041635314
6	19471	912	16.079274000824
6	20491	913	18.156329223046
6	21511	914	18.465947333739
6	22531	915	5.2058666782103
6	23551	916	4.8529846288557
6	24571	917	5.2086509474158
6	25591	918	4.7459395120994
6	26611	919	4.5700923268047
6	27631	920	5.7176983144666
6	28651	921	4.8963378857166
6	29671	922	5.0660461570325
6	30691	923	5.2218704905068
6	31711	924	4.4692892883418
6	32731	925	5.0247583052306
6	33751	926	5.3321697246706
6	34771	927	4.8110087990691
6	35791	928	5.5125803154864
6	36811	929	4.947092041233
6	37833	930	4.5633141357844
6	38861	931	5.5652149836874
6	39892	932	4.3758476822579
6	40923	933	5.2646593942768
6	41966	934	4.5083149788399
6	43030	935	5.2599690581871
6	44101	936	5.5864473651593
6	45173	937	4.6439078117849
6	46244	938	4.7177508712302
6	47316	939	5.6599969052788
6	48388	940	4.2879927768916
6	49460	941	5.5416863841181
6	50532	942	4.644703260581
6	51604	943	5.367102291788
6	52676	944	4.6073317686894
6	53748	945	5.2179546299676
6	54820	946	4.8393362078019
6	55892	947	5.5879690067028
6	56964	948	4.3509044541469
6	58036	949	5.5084340828842
6	59108	950	4.4292129195467
6	60180	951	5.5112408536812
6	61252	952	5.3051803393833
6	62324	953	4.5645468646932
6	63396	954	5.1882509066649
6	64468	955	5.3823101829808
6	65540	956	4.1190517145652
6	66612	957	5.0804651305369
6	67684	958	4.8933747531298
6	68756	959	5.2404592989486
6	69828	960	4.8830564670919
6	70900	961	5.0700286930705
6	71968	962	5.1231462616819
6	73033	963	4.9613774888414
6	74095	964	4.730664855929
6	75155	965	5.2018603915984
6	76216	966	5.3488818147103
6	77273	967	5.0831621065171
6	78323	968	5.0031982809952
6	79357	969	4.5762378683103
6	80377	970	4.9183743391653
6	81397	971	5.6084906624996
6	82417	972	4.9231328171314
6	83438	973	0.973
5	9311	902	1.9491067656805
5	10291	903	1.8838952855184
5	11311	904	1.934917997662
5	12331	905	1.9719010580983
5	13351	906	2.0280046309531
5	14371	907	2.0791135100531
5	15391	908	2.0708301827405
5	16411	909	2.0703435182991
5	17431	910	1.851203502398
5	18451	911	2.036284935493
5	19471	912	1.9313239196804
5	20491	913	2.0243648998928
5	21511	914	1.8680289803861
5	22531	915	0.0254200899438
5	23551	916	-0.022633952738254
5	24571	917	0.025678729894572
5	25591	918	-0.037046344252303
5	26611	919	-0.059167244073468
5	27631	920	0.096303305928593
5	28651	921	-0.016970023573375
5	29671	922	0.0063284252746953
5	30691	923	0.026829255362973
5	31711	924	-0.07465636126464
5	32731	925	0.0024625248182559
5	33751	926	0.043350805637893
5	34771	927	-0.027871015858839
5	35791	928	0.066709108909127
5	36811	929	-0.011224494073538
5	37833	930	-0.062029326434715
5	38861	931	0.073974182598761
5	39892	932	-0.087562947741244
5	40923	933	0.034548069676383
5	41966	934	-0.067856706555467
5	43030	935	0.035271894605831
5	44101	936	0.0772808199469
5	45173	937	-0.051390742403456
5	46244	938	-0.039564018698876
5	47316	939	0.087625754957553
5	48388	940	-0.098910615376663
5	49460	941	0.072373015342748
5	50532	942	-0.050153917495628
5	51604	943	0.048223412784282
5	52676	944	-0.055081101721154
5	53748	945	0.028631462475751
5	54820	946	-0.023042686898261
5	55892	947	0.077650788840838
5	56964	948	-0.090466350349597
5	58036	949	0.067611462366767
5	59108	950	-0.079132059891705
5	60180	951	0.068463517276104
5	61252	952	0.038234886035788
5	62324	953	-0.062040679228957
5	63396	954	0.023629446139093
5	64468	955	0.04849826214835
5	65540	956	-0.12209538233932
5	66612	957	0.011244776619133
5	67684	958	-0.014208216469271
5	68756	959	0.032723707549742
5	69828	960	-0.01630868671462
5	70900	961	0.0093165164301148
5	71968	962	0.016036825708582
5	73033	963	-0.0061953303217912
5	74095	964	-0.036806710930541
5	75155	965	0.02762272852706
5	76216	966	0.046103651511949
5	77273	967	0.0088421347667449
5	78323	968	-0.0021688113571123
5	79357	969	-0.059132420092357
5	80377	970	-0.011091866700443
5	81397	971	0.08137028396828
5	82417	972	-0.013200135491786
5	83438	973	-4.5
2	9156	901	4.1783900467449
2	9311	902	6.1274968124253
2	10291	903	8.0113920979437
2	11311	904	9.9463100956057
2	12331	905	11.918211153704
2	13351	906	13.946215784657
2	14371	907	16.02532929471
2	15391	908	18.096159477451
2	16411	909	20.16650299575
2	17431	910	22.017706498148
2	18451	911	24.053991433641
2	19471	912	25.985315353321
2	20491	913	28.009680253214
2	21511	914	29.8777092336
2	22531	915	29.903129323544
2	23551	916	29.880495370806
2	24571	917	29.9061741007
2	25591	918	29.869127756448
2	26611	919	29.809960512375
2	27631	920	29.906263818303
2	28651	921	29.88929379473
2	29671	922	29.895622220004
2	30691	923	29.922451475367
2	31711	924	29.847795114103
2	32731	925	29.850257638921
2	33751	926	29.893608444559
2	34771	927	29.8657374287
2	35791	928	29.932446537609
2	36811	929	29.921222043536
2	37833	930	29.859192717101
2	38861	931	29.9331668997
2	39892	932	29.845603951958
2	40923	933	29.880152021635
2	41966	934	29.812295315079
2	43030	935	29.847567209685
2	44101	936	29.924848029632
2	45173	937	29.873457287229
2	46244	938	29.83389326853
2	47316	939	29.921519023487
2	48388	940	29.822608408111
2	49460	941	29.894981423453
2	50532	942	29.844827505958
2	51604	943	29.893050918742
2	52676	944	29.837969817021
2	53748	945	29.866601279497
2	54820	946	29.843558592598
2	55892	947	29.921209381439
2	56964	948	29.83074303109
2	58036	949	29.898354493456
2	59108	950	29.819222433565
2	60180	951	29.887685950841
2	61252	952	29.925920836877
2	62324	953	29.863880157648
2	63396	954	29.887509603787
2	64468	955	29.936007865935
2	65540	956	29.813912483596
2	66612	957	29.825157260215
2	67684	958	29.810949043746
2	68756	959	29.843672751295
2	69828	960	29.827364064581
2	70900	961	29.836680581011
2	71968	962	29.852717406719
2	73033	963	29.846522076398
2	74095	964	29.809715365467
2	75155	965	29.837338093994
2	76216	966	29.883441745506
2	77273	967	29.892283880273
2	78323	968	29.890115068916
2	79357	969	29.830982648823
2	80377	970	29.819890782123
2	81397	971	29.901261066091
2	82417	972	29.888060930599
2	83438	973	25.388060930599
1	9001	900	20.2
1	9156	901	20.2
1	9311	902	20.2
1	10291	903	20.2
1	11311	904	20.2
1	12331	905	20.2
1	13351	906	20.2
1	14371	907	20.2
1	15391	908	20.2
1	16411	909	20.2
1	17431	910	20.2
1	18451	911	20.2
1	19471	912	20.2
1	20491	913	20.2
1	21511	914	20.2
1	22531	915	20.2
1	23551	916	20.2
1	24571	917	20.2
1	25591	918	20.2
1	26611	919	20.2
1	27631	920	20.2
1	28651	921	20.2
1	29671	922	20.2
1	30691	923	20.2
1	31711	924	20.2
1	32731	925	20.2
1	33751	926	20.2
1	34771	927	20.2
1	35791	928	20.2
1	36811	929	20.2
1	37833	930	20.2
1	38861	931	20.2
1	39892	932	20.2
1	40923	933	20.2
1	41966	934	20.2
1	43030	935	20.2
1	44101	936	20.2
1	45173	937	20.2
1	46244	938	20.2
1	47316	939	20.2
1	48388	940	20.2
1	49460	941	20.2
1	50532	942	20.2
1	51604	943	20.2
1	52676	944	20.2
1	53748	945	20.2
1	54820	946	20.2
1	55892	947	20.2
1	56964	948	20.2
1	58036	949	20.2
1	59108	950	20.2
1	60180	951	20.2
1	61252	952	20.2
1	62324	953	20.2
1	63396	954	20.2
1	64468	955	20.2
1	65540	956	20.2
1	66612	957	20.2
1	67684	958	20.2
1	68756	959	20.2
1	69828	960	20.2
1	70900	961	20.2
1	71968	962	20.2
1	73033	963	20.2
1	74095	964	20.2
1	75155	965	20.2
1	76216	966	20.2
1	77273	967	20.2
1	78323	968	20.2
1	79357	969	20.2
1	80377	970	20.2
1	81397	971	20.2
1	82417	972	20.2
1	83438	973	20.2
0	9001	900	31.162333637945
0	9156	901	34.405667229181
0	9311	902	39.619291099945
0	10291	903	46.734044224515
0	11311	904	55.814611344047
0	12331	905	66.8419116074
0	13351	906	79.864711865843
0	14371	907	94.930850787004
0	15391	908	112.09357262886
0	16411	909	131.3515549825
0	17431	910	152.57232811228
0	18451	911	175.68084563685
0	19471	912	200.85355917467
0	20491	913	227.93641706026
0	21511	914	257.02340244524
0	22531	915	286.89838089578
0	23551	916	316.77873781566
0	24571	917	346.63583682717
0	25591	918	376.51113140654
0	26611	919	406.38035445217
0	27631	920	436.26558445782
0	28651	921	466.17302669781
0	29671	922	496.04713083595
0	30691	923	525.83954170565
0	31711	924	555.73682178738
0	32731	925	585.60742094813
0	33751	926	615.49243912531
0	34771	927	645.36949532582
0	35791	928	675.25078169252
0	36811	929	705.12581644863
0	37833	930	735.01572806538
0	38861	931	764.87834384453
0	39892	932	794.7431431129
0	40923	933	824.61738326911
0	41966	934	854.48009849918
0	43030	935	884.33278752858
0	44101	936	914.21232468273
0	45173	937	944.0826619019
0	46244	938	973.95253955934
0	47316	939	1003.82532319
0	48388	940	1033.7100288278
0	49460	941	1063.5837134165
0	50532	942	1093.4562574364
0	51604	943	1123.3323167941
0	52676	944	1153.2198397811
0	53748	945	1183.0833489877
0	54820	946	1212.9542314281
0	55892	947	1242.8377825211
0	56964	948	1272.7282667927
0	58036	949	1302.6149483717
0	59108	950	1332.4789106698
0	60180	951	1362.3512859699
0	61252	952	1392.2346069075
0	62324	953	1422.1248103714
0	63396	954	1452.0071436836
0	64468	955	1481.8779825589
0	65540	956	1511.7693091503
0	66612	957	1541.5602404167
0	67684	958	1571.4315803506
0	68756	959	1601.2958116427
0	69828	960	1631.1833674767
0	70900	961	1661.0487192494
0	71968	962	1690.9043722211
0	73033	963	1720.7864068731
0	74095	964	1750.6691563747
0	75155	965	1780.550901732
0	76216	966	1810.412621614
0	77273	967	1840.2884778462
0	78323	968	1870.1583738163
0	79357	969	1900.0570190491
0	80377	970	1929.9179356127
0	81397	971	1959.7960076363
0	82417	972	1989.6683552213
0	83438	973	2017.0814161518
9	11311	904	3.7958174285954
9	12331	905	4.3877935474603
9	13351	906	5.7650048211934
9	14371	907	6.1627097405917
9	15391	908	7.5763050376568
9	16411	909	9.5275672378739
9	17431	910	9.3864875884679
9	18451	911	11.577709272102
9	19471	912	12.472342327769
9	20491	913	13.918381620659
9	21511	914	15.667097119526
9	22531	915	15.552947793013
9	23551	916	17.5989847874
9	24571	917	4.2747240245627
9	25591	918	4.2955832910209
9	26611	919	4.7355386451575
9	27631	920	4.2133879410093
9	28651	921	4.6553021911066
9	29671	922	4.8111594506197
9	30691	923	3.8747601709283
9	31711	924	4.7146860893087
9	32731	925	4.6302940646771
9	33751	926	4.4948522235639
9	34771	927	4.6502869916499
9	35791	928	4.6734704750437
9	36811	929	3.884423291265
9	37833	930	4.6311888115493
9	38861	931	4.3278700825194
9	39892	932	5.1764273745353
9	40923	933	3.8180960563559
9	41966	934	4.4134941109354
9	43030	935	4.8224833164009
9	44101	936	4.2535065227542
9	45173	937	4.7873698448072
9	46244	938	4.5382330149525
9	47316	939	4.5260340549774
9	48388	940	4.7760502609923
9	49460	941	4.4239214336818
9	50532	942	4.6468820048777
9	51604	943	4.2759042336337
9	52676	944	4.6816469267346
9	53748	945	4.2174859952229
9	54820	946	4.821719273112
9	55892	947	3.8078541546119
9	56964	948	5.1383531442172
9	58036	949	3.841390741927
9	59108	950	4.510547642634
9	60180	951	4.9815544067071
9	61252	952	4.7438731047716
9	62324	953	3.966448191451
9	63396	954	4.2650598136619
9	64468	955	5.106764634056
9	65540	956	4.3011821029811
9	66612	957	4.074437815556
9	67684	958	4.7402354510368
9	68756	959	5.1117325718161
9	69828	960	4.4633773997113
9	70900	961	4.3103346199198
9	71968	962	4.0724161148966
9	73033	963	4.3649385406327
9	74095	964	4.8433118913726
9	75155	965	4.7047315549586
9	76216	966	4.6327935330656
9	77273	967	3.9419329693846
9	78323	968	4.9753881087525
9	79357	969	4.0634127645227
9	80377	970	5.0665096779272
9	81397	971	3.8723266354975
9	82417	972	4.5790277516197
9	83438	973	4.9088229717797
9	84458	974	3.8920801099562
9	85033	975	4.7003469009796
9	85608	976	4.9399059897608
9	86183	977	4.0371559185537
9	86758	978	4.9014825342005
9	87333	979	4.7372508365716
8	11311	904	2.0575221588975
8	12331	905	1.8058640835737
8	13351	906	1.9883036303776
8	14371	907	1.760178912573
8	15391	908	1.9085715479054
8	16411	909	2.1269893481047
8	17431	910	1.8035329894233
8	18451	911	2.0381071836432
8	19471	912	1.9629918358894
8	20491	913	1.9921408532816
8	21511	914	2.0525340162241
8	22531	915	1.8260895103938
8	23551	916	1.9307006589598
8	24571	917	-0.034654789138585
8	25591	918	-0.030407566812354
8	26611	919	0.03332743786741
8	27631	920	-0.042230657360051
8	28651	921	0.022273128679956
8	29671	922	0.043535177733283
8	30691	923	-0.091420053532346
8	31711	924	0.031709716990587
8	32731	925	0.018482652225067
8	33751	926	-0.0014854711573555
8	34771	927	0.020668404330497
8	35791	928	0.023161248618273
8	36811	929	-0.090077575352044
8	37833	930	0.019736895388924
8	38861	931	-0.024224606410133
8	39892	932	0.097299624737353
8	40923	933	-0.099656495889651
8	41966	934	-0.011019560422284
8	43030	935	0.047637751786972
8	44101	936	-0.035204641537277
8	45173	937	0.042158124586567
8	46244	938	0.0051040108758045
8	47316	939	0.0031744425953342
8	48388	940	0.038571226019414
8	49460	941	-0.012924936350903
8	50532	942	0.019243100869936
8	51604	943	-0.034221075719689
8	52676	944	0.024757264808287
8	53748	945	-0.042195720782036
8	54820	946	0.045316309400366
8	55892	947	-0.10080189302331
8	56964	948	0.092431974185168
8	58036	949	-0.095713738061022
8	59108	950	0.0033380501577618
8	60180	951	0.070199420130812
8	61252	952	0.0336926965788
8	62324	953	-0.078238073564133
8	63396	954	-0.032772529686337
8	64468	955	0.088244571019896
8	65540	956	-0.029664058461787
8	66612	957	-0.060942866271361
8	67684	958	0.03628837149823
8	68756	959	0.087563329511323
8	69828	960	-0.0078280001925286
8	70900	961	-0.029299501725472
8	71968	962	-0.062155189095066
8	73033	963	-0.018124313168229
8	74095	964	0.050691137672402
8	75155	965	0.029014094041194
8	76216	966	0.017673638630658
8	77273	967	-0.081404524776151
8	78323	968	0.068804488170425
8	79357	969	-0.063602025017609
8	80377	970	0.081511433655397
8	81397	971	-0.091541498792356
8	82417	972	0.012659962642935
8	83438	973	0.059047883157618
8	84458	974	-0.088024300429968
8	85033	975	0.030562446662223
8	85608	976	0.063394147865473
8	86183	977	-0.067495121560057
8	86758	978	0.05810647116741
8	87333	979	0.03251258215867
7	10291	903	2.8585373363743
7	11311	904	4.9160594952718
7	12331	905	6.7219235788455
7	13351	906	8.7102272092231
7	14371	907	10.470406121796
7	15391	908	12.378977669702
7	16411	909	14.505967017806
7	17431	910	16.30950000723
7	18451	911	18.347607190873
7	19471	912	20.310599026762
7	20491	913	22.302739880044
7	21511	914	24.355273896268
7	22531	915	26.181363406662
7	23551	916	28.112064065621
7	24571	917	28.077409276483
7	25591	918	28.047001709671
7	26611	919	28.080329147538
7	27631	920	28.038098490178
7	28651	921	28.060371618858
7	29671	922	28.103906796591
7	30691	923	28.012486743059
7	31711	924	28.044196460049
7	32731	925	28.062679112274
7	33751	926	28.061193641117
7	34771	927	28.081862045448
7	35791	928	28.105023294066
7	36811	929	28.014945718714
7	37833	930	28.034682614103
7	38861	931	28.010458007693
7	39892	932	28.10775763243
7	40923	933	28.00810113654
7	41966	934	27.997081576118
7	43030	935	28.044719327905
7	44101	936	28.009514686368
7	45173	937	28.051672810954
7	46244	938	28.05677682183
7	47316	939	28.059951264425
7	48388	940	28.098522490445
7	49460	941	28.085597554094
7	50532	942	28.104840654964
7	51604	943	28.070619579244
7	52676	944	28.095376844052
7	53748	945	28.05318112327
7	54820	946	28.098497432671
7	55892	947	27.997695539647
7	56964	948	28.090127513833
7	58036	949	27.994413775772
7	59108	950	27.997751825929
7	60180	951	28.06795124606
7	61252	952	28.101643942639
7	62324	953	28.023405869075
7	63396	954	27.990633339389
7	64468	955	28.078877910408
7	65540	956	28.049213851947
7	66612	957	27.988270985675
7	67684	958	28.024559357173
7	68756	959	28.112122686685
7	69828	960	28.104294686492
7	70900	961	28.074995184767
7	71968	962	28.012839995672
7	73033	963	27.994715682504
7	74095	964	28.045406820176
7	75155	965	28.074420914217
7	76216	966	28.092094552848
7	77273	967	28.010690028072
7	78323	968	28.079494516242
7	79357	969	28.015892491224
7	80377	970	28.09740392488
7	81397	971	28.005862426087
7	82417	972	28.01852238873
7	83438	973	28.077570271888
7	84458	974	27.989545971458
7	85033	975	28.02010841812
7	85608	976	28.083502565986
7	86183	977	28.016007444426
7	86758	978	28.074113915593
7	87333	979	28.106626497752
4	9311	902	20.2
4	10291	903	20.2
4	11311	904	20.2
4	12331	905	20.2
4	13351	906	20.2
4	14371	907	20.2
4	15391	908	20.2
4	16411	909	20.2
4	17431	910	20.2
4	18451	911	20.2
4	19471	912	20.2
4	20491	913	20.2
4	21511	914	20.2
4	22531	915	20.2
4	23551	916	20.2
4	24571	917	20.2
4	25591	918	20.2
4	26611	919	20.2
4	27631	920	20.2
4	28651	921	20.2
4	29671	922	20.2
4	30691	923	20.2
4	31711	924	20.2
4	32731	925	20.2
4	33751	926	20.2
4	34771	927	20.2
4	35791	928	20.2
4	36811	929	20.2
4	37833	930	20.2
4	38861	931	20.2
4	39892	932	20.2
4	40923	933	20.2
4	41966	934	20.2
4	43030	935	20.2
4	44101	936	20.2
4	45173	937	20.2
4	46244	938	20.2
4	47316	939	20.2
4	48388	940	20.2
4	49460	941	20.2
4	50532	942	20.2
4	51604	943	20.2
4	52676	944	20.2
4	53748	945	20.2
4	54820	946	20.2
4	55892	947	20.2
4	56964	948	20.2
4	58036	949	20.2
4	59108	950	20.2
4	60180	951	20.2
4	61252	952	20.2
4	62324	953	20.2
4	63396	954	20.2
4	64468	955	20.2
4	65540	956	20.2
4	66612	957	20.2
4	67684	958	20.2
4	68756	959	20.2
4	69828	960	20.2
4	70900	961	20.2
4	71968	962	20.2
4	73033	963	20.2
4	74095	964	20.2
4	75155	965	20.2
4	76216	966	20.2
4	77273	967	20.2
4	78323	968	20.2
4	79357	969	20.2
4	80377	970	20.2
4	81397	971	20.2
4	82417	972	20.2
4	83438	973	20.2
4	84458	974	20.2
4	85033	975	20.2
4	85608	976	20.2
4	86183	977	20.2
4	86758	978	20.2
4	87333	979	20.2
3	9311	902	30.253137847226
3	10291	903	32.195075445227
3	11311	904	36.208354073425
3	12331	905	42.098305462836
3	13351	906	49.881153681992
3	14371	907	59.579302164598
3	15391	908	71.129595403775
3	16411	909	84.676499066224
3	17431	910	100.18074442873
3	18451	911	117.53084648154
3	19471	912	136.9605636939
3	20491	913	158.3802504664
3	21511	914	181.78169808963
3	22531	915	207.12299142696
3	23551	916	234.39128778465
3	24571	917	262.44278350301
3	25591	918	290.50162573571
3	26611	919	318.56248350361
3	27631	920	346.59254965879
3	28651	921	374.65167273434
3	29671	922	402.69183932668
3	30691	923	430.73944933095
3	31711	924	458.79615723208
3	32731	925	486.86656901528
3	33751	926	514.93019716275
3	34771	927	542.90591805005
3	35791	928	570.96724854974
3	36811	929	599.00486666718
3	37833	930	627.06856145058
3	38861	931	655.09241393148
3	39892	932	683.12864586963
3	40923	933	711.18934508047
3	41966	934	739.24870366322
3	43030	935	767.31050831327
3	44101	936	795.3515288315
3	45173	937	823.42158525049
3	46244	938	851.45843248761
3	47316	939	879.50662955178
3	48388	940	907.56689001193
3	49460	941	935.62083043103
3	50532	942	963.66842334489
3	51604	943	991.71525274702
3	52676	944	1019.7673937454
3	53748	945	1047.8105862176
3	54820	946	1075.8698133516
3	55892	947	1103.9274995988
3	56964	948	1131.9842886596
3	58036	949	1160.0363257189
3	59108	950	1188.0904148305
3	60180	951	1216.1452110756
3	61252	952	1244.217619108
3	62324	953	1272.2497188871
3	63396	954	1300.3101759536
3	64468	955	1328.3900829507
3	65540	956	1356.4304210082
3	66612	957	1384.4626146743
3	67684	958	1412.5058327974
3	68756	959	1440.5632477834
3	69828	960	1468.6335098441
3	70900	961	1496.7145510006
3	71968	962	1524.7741899748
3	73033	963	1552.7032828847
3	74095	964	1580.7379130073
3	75155	965	1608.8179253832
3	76216	966	1636.8718280456
3	77273	967	1664.9248222217
3	78323	968	1692.9663167341
3	79357	969	1721.0114835953
3	80377	970	1749.0591260559
3	81397	971	1777.1087833686
3	82417	972	1805.1486508877
3	83438	973	1833.2155882433
3	84458	974	1861.2695218082
3	85033	975	1889.2937728912
3	85608	976	1917.3306863247
3	86183	977	1945.3873575206
3	86758	978	1973.4371681998
3	87333	979	2001.4659435511

