file 96897423 1755054489                                        
version 2
run PersistentAttack-0-20250813-04:07:08-51169
attr configname PersistentAttack
attr datetime 20250813-04:07:08
attr experiment PersistentAttack
attr inifile omnetpp.ini
attr iterationvars ""
attr iterationvarsf ""
attr measurement ""
attr network RSUExampleScenario3
attr processid 51169
attr repetition 0
attr replication #0
attr resultdir results
attr runnumber 0
attr seedset 0
param *.hacker[*].appl.attackPolicy 0
param *.hacker[*].appl.nDosMessages 0
param *.hacker[*].appl.successProbability 0
param *.hacker[*].appl.attackInterval 0s
param *.hacker[*].appl.beaconInterval 0.1s
param *.hacker[*].appl.speedAttackOffset "2 mps"
param *.playgroundSizeX 4000m
param *.playgroundSizeY 4000m
param *.playgroundSizeZ 50m
param *.annotations.draw true
param *.manager.updateInterval 1s
param *.manager.host "\"localhost\""
param *.manager.port 9999
param *.manager.autoShutdown true
param *.manager.launchConfig "xmldoc(\"lostest1.launchd.xml\")"
param *.connectionManager.sendDirect true
param *.connectionManager.maxInterfDist 2600m
param *.connectionManager.drawMaxIntfDist false
param *.**.nic.mac1609_4.useServiceChannel false
param *.node[*].nic.mac1609_4.txPower 20mW
param *.**.nic.mac1609_4.bitrate 6Mbps
param *.**.nic.phy80211p.minPowerLevel -110dBm
param *.**.nic.phy80211p.useNoiseFloor true
param *.**.nic.phy80211p.noiseFloor -98dBm
param *.**.nic.phy80211p.decider "xmldoc(\"config.xml\")"
param *.**.nic.phy80211p.analogueModels "xmldoc(\"config.xml\")"
param *.**.nic.phy80211p.usePropagationDelay true
param *.**.nic.phy80211p.antenna "xmldoc(\"antenna.xml\", \"/root/Antenna[@id='monopole']\")"
param *.node[*].nic.phy80211p.antennaOffsetY "0 m"
param *.node[*].nic.phy80211p.antennaOffsetZ "1.895 m"
param *.node[*].applType "\"MyVeinsApp\""
param *.node[*].appl.headerLength "80 bit"
param *.node[*].appl.sendBeacons true
param *.node[*].appl.dataOnSch false
param *.node[*].appl.beaconInterval 1s
param *.node[*].veinsmobility.x 0
param *.node[*].veinsmobility.y 0
param *.node[*].veinsmobility.z 0
param *.node[*].veinsmobility.setHostSpeed false
param *.manager.moduleType "\"hacker=org.car2x.veins.nodes.Car target=org.car2x.veins.nodes.Car *=org.car2x.veins.nodes.Car\""
param *.manager.moduleName "\"hacker=hacker target=target *=node\""
param *.target[*].applType "\"TargetApp\""
param *.target[*].appl.headerLength "80 bit"
param *.target[*].appl.sendBeacons false
param *.target[*].appl.dataOnSch false
param *.target[*].appl.beaconInterval 1s
param *.target[*].veinsmobility.x 0
param *.target[*].veinsmobility.y 0
param *.target[*].veinsmobility.z 0
param *.target[*].veinsmobility.setHostSpeed false
param *.target[*].nic.mac1609_4.txPower 20mW
param *.hacker[*].applType "\"AttackApp\""
param *.hacker[*].appl.headerLength "80 bit"
param *.hacker[*].appl.sendBeacons true
param *.hacker[*].appl.dataOnSch false
param *.hacker[*].veinsmobility.x 0
param *.hacker[*].veinsmobility.y 0
param *.hacker[*].veinsmobility.z 0
param *.hacker[*].veinsmobility.setHostSpeed false
param *.hacker[*].nic.mac1609_4.txPower 20mW
param *.hacker[*].appl.attack 2
param *.hacker[*].appl.attackInterval 0s

vector 0 RSUExampleScenario3.node[0].veinsmobility posx ETV
vector 1 RSUExampleScenario3.node[0].veinsmobility posy ETV
vector 2 RSUExampleScenario3.node[1].veinsmobility posx ETV
vector 3 RSUExampleScenario3.node[1].veinsmobility posy ETV
vector 4 RSUExampleScenario3.node[0].veinsmobility speed ETV
vector 5 RSUExampleScenario3.node[1].veinsmobility speed ETV
vector 6 RSUExampleScenario3.node[2].veinsmobility posx ETV
vector 7 RSUExampleScenario3.node[2].veinsmobility posy ETV
vector 8 RSUExampleScenario3.node[3].veinsmobility posx ETV
vector 9 RSUExampleScenario3.node[3].veinsmobility posy ETV
vector 10 RSUExampleScenario3.node[0].veinsmobility acceleration ETV
vector 11 RSUExampleScenario3.node[0].veinsmobility co2emission ETV
vector 12 RSUExampleScenario3.node[1].veinsmobility acceleration ETV
vector 13 RSUExampleScenario3.node[1].veinsmobility co2emission ETV
vector 14 RSUExampleScenario3.node[2].veinsmobility speed ETV
vector 15 RSUExampleScenario3.node[3].veinsmobility speed ETV
vector 16 RSUExampleScenario3.node[2].veinsmobility acceleration ETV
vector 17 RSUExampleScenario3.node[2].veinsmobility co2emission ETV
vector 18 RSUExampleScenario3.node[3].veinsmobility acceleration ETV
vector 19 RSUExampleScenario3.node[3].veinsmobility co2emission ETV
vector 20 RSUExampleScenario3.node[4].veinsmobility posx ETV
vector 21 RSUExampleScenario3.node[4].veinsmobility posy ETV
vector 22 RSUExampleScenario3.node[5].veinsmobility posx ETV
vector 23 RSUExampleScenario3.node[5].veinsmobility posy ETV
vector 24 RSUExampleScenario3.node[4].veinsmobility speed ETV
vector 25 RSUExampleScenario3.node[5].veinsmobility speed ETV
vector 26 RSUExampleScenario3.node[6].veinsmobility posx ETV
vector 27 RSUExampleScenario3.node[6].veinsmobility posy ETV
vector 28 RSUExampleScenario3.node[7].veinsmobility posx ETV
vector 29 RSUExampleScenario3.node[7].veinsmobility posy ETV
vector 30 RSUExampleScenario3.node[4].veinsmobility acceleration ETV
vector 31 RSUExampleScenario3.node[4].veinsmobility co2emission ETV
vector 32 RSUExampleScenario3.node[5].veinsmobility acceleration ETV
vector 33 RSUExampleScenario3.node[5].veinsmobility co2emission ETV
vector 34 RSUExampleScenario3.node[6].veinsmobility speed ETV
vector 35 RSUExampleScenario3.node[7].veinsmobility speed ETV
vector 36 RSUExampleScenario3.node[6].veinsmobility acceleration ETV
vector 37 RSUExampleScenario3.node[6].veinsmobility co2emission ETV
vector 38 RSUExampleScenario3.node[7].veinsmobility acceleration ETV
vector 39 RSUExampleScenario3.node[7].veinsmobility co2emission ETV
vector 40 RSUExampleScenario3.hacker[8].veinsmobility posx ETV
vector 41 RSUExampleScenario3.hacker[8].veinsmobility posy ETV
vector 42 RSUExampleScenario3.node[9].veinsmobility posx ETV
vector 43 RSUExampleScenario3.node[9].veinsmobility posy ETV
vector 44 RSUExampleScenario3.hacker[8].veinsmobility speed ETV
vector 45 RSUExampleScenario3.node[9].veinsmobility speed ETV
vector 46 RSUExampleScenario3.hacker[8].veinsmobility acceleration ETV
vector 47 RSUExampleScenario3.hacker[8].veinsmobility co2emission ETV
vector 48 RSUExampleScenario3.node[9].veinsmobility acceleration ETV
vector 49 RSUExampleScenario3.node[9].veinsmobility co2emission ETV
vector 50 RSUExampleScenario3.node[10].veinsmobility posx ETV
vector 51 RSUExampleScenario3.node[10].veinsmobility posy ETV
vector 52 RSUExampleScenario3.node[11].veinsmobility posx ETV
vector 53 RSUExampleScenario3.node[11].veinsmobility posy ETV
vector 54 RSUExampleScenario3.node[10].veinsmobility speed ETV
vector 55 RSUExampleScenario3.node[11].veinsmobility speed ETV
vector 56 RSUExampleScenario3.node[12].veinsmobility posx ETV
vector 57 RSUExampleScenario3.node[12].veinsmobility posy ETV
vector 58 RSUExampleScenario3.node[13].veinsmobility posx ETV
vector 59 RSUExampleScenario3.node[13].veinsmobility posy ETV
vector 60 RSUExampleScenario3.node[10].veinsmobility acceleration ETV
vector 61 RSUExampleScenario3.node[10].veinsmobility co2emission ETV
vector 62 RSUExampleScenario3.node[11].veinsmobility acceleration ETV
vector 63 RSUExampleScenario3.node[11].veinsmobility co2emission ETV
vector 64 RSUExampleScenario3.node[12].veinsmobility speed ETV
vector 65 RSUExampleScenario3.node[13].veinsmobility speed ETV
vector 66 RSUExampleScenario3.node[12].veinsmobility acceleration ETV
vector 67 RSUExampleScenario3.node[12].veinsmobility co2emission ETV
vector 68 RSUExampleScenario3.node[13].veinsmobility acceleration ETV
vector 69 RSUExampleScenario3.node[13].veinsmobility co2emission ETV
vector 70 RSUExampleScenario3.node[14].veinsmobility posx ETV
vector 71 RSUExampleScenario3.node[14].veinsmobility posy ETV
vector 72 RSUExampleScenario3.node[15].veinsmobility posx ETV
vector 73 RSUExampleScenario3.node[15].veinsmobility posy ETV
vector 74 RSUExampleScenario3.node[14].veinsmobility speed ETV
vector 75 RSUExampleScenario3.node[15].veinsmobility speed ETV
vector 76 RSUExampleScenario3.node[16].veinsmobility posx ETV
vector 77 RSUExampleScenario3.node[16].veinsmobility posy ETV
vector 78 RSUExampleScenario3.node[14].veinsmobility acceleration ETV
vector 79 RSUExampleScenario3.node[14].veinsmobility co2emission ETV
vector 80 RSUExampleScenario3.node[15].veinsmobility acceleration ETV
vector 81 RSUExampleScenario3.node[15].veinsmobility co2emission ETV
vector 82 RSUExampleScenario3.node[17].veinsmobility posx ETV
vector 83 RSUExampleScenario3.node[17].veinsmobility posy ETV
vector 84 RSUExampleScenario3.node[16].veinsmobility speed ETV
vector 85 RSUExampleScenario3.node[16].veinsmobility acceleration ETV
vector 86 RSUExampleScenario3.node[16].veinsmobility co2emission ETV
vector 87 RSUExampleScenario3.node[17].veinsmobility speed ETV
vector 88 RSUExampleScenario3.node[18].veinsmobility posx ETV
vector 89 RSUExampleScenario3.node[18].veinsmobility posy ETV
vector 90 RSUExampleScenario3.node[19].veinsmobility posx ETV
vector 91 RSUExampleScenario3.node[19].veinsmobility posy ETV
vector 92 RSUExampleScenario3.node[17].veinsmobility acceleration ETV
vector 93 RSUExampleScenario3.node[17].veinsmobility co2emission ETV
vector 94 RSUExampleScenario3.node[18].veinsmobility speed ETV
vector 95 RSUExampleScenario3.node[19].veinsmobility speed ETV
vector 96 RSUExampleScenario3.node[18].veinsmobility acceleration ETV
vector 97 RSUExampleScenario3.node[18].veinsmobility co2emission ETV
vector 98 RSUExampleScenario3.node[19].veinsmobility acceleration ETV
vector 99 RSUExampleScenario3.node[19].veinsmobility co2emission ETV
vector 100 RSUExampleScenario3.node[20].veinsmobility posx ETV
vector 101 RSUExampleScenario3.node[20].veinsmobility posy ETV
vector 102 RSUExampleScenario3.node[21].veinsmobility posx ETV
vector 103 RSUExampleScenario3.node[21].veinsmobility posy ETV
vector 104 RSUExampleScenario3.node[20].veinsmobility speed ETV
vector 105 RSUExampleScenario3.node[21].veinsmobility speed ETV
vector 106 RSUExampleScenario3.node[22].veinsmobility posx ETV
vector 107 RSUExampleScenario3.node[22].veinsmobility posy ETV
vector 108 RSUExampleScenario3.node[23].veinsmobility posx ETV
vector 109 RSUExampleScenario3.node[23].veinsmobility posy ETV
vector 110 RSUExampleScenario3.node[20].veinsmobility acceleration ETV
vector 111 RSUExampleScenario3.node[20].veinsmobility co2emission ETV
vector 112 RSUExampleScenario3.node[21].veinsmobility acceleration ETV
vector 113 RSUExampleScenario3.node[21].veinsmobility co2emission ETV
vector 114 RSUExampleScenario3.node[22].veinsmobility speed ETV
vector 115 RSUExampleScenario3.node[23].veinsmobility speed ETV
vector 116 RSUExampleScenario3.node[22].veinsmobility acceleration ETV
vector 117 RSUExampleScenario3.node[22].veinsmobility co2emission ETV
vector 118 RSUExampleScenario3.node[23].veinsmobility acceleration ETV
vector 119 RSUExampleScenario3.node[23].veinsmobility co2emission ETV
vector 120 RSUExampleScenario3.node[24].veinsmobility posx ETV
vector 121 RSUExampleScenario3.node[24].veinsmobility posy ETV
vector 122 RSUExampleScenario3.node[25].veinsmobility posx ETV
vector 123 RSUExampleScenario3.node[25].veinsmobility posy ETV
vector 124 RSUExampleScenario3.node[24].veinsmobility speed ETV
vector 125 RSUExampleScenario3.node[25].veinsmobility speed ETV
vector 126 RSUExampleScenario3.node[26].veinsmobility posx ETV
vector 127 RSUExampleScenario3.node[26].veinsmobility posy ETV
vector 128 RSUExampleScenario3.node[24].veinsmobility acceleration ETV
vector 129 RSUExampleScenario3.node[24].veinsmobility co2emission ETV
vector 130 RSUExampleScenario3.node[25].veinsmobility acceleration ETV
vector 131 RSUExampleScenario3.node[25].veinsmobility co2emission ETV
vector 132 RSUExampleScenario3.node[27].veinsmobility posx ETV
vector 133 RSUExampleScenario3.node[27].veinsmobility posy ETV
vector 134 RSUExampleScenario3.node[26].veinsmobility speed ETV
vector 135 RSUExampleScenario3.node[26].veinsmobility acceleration ETV
vector 136 RSUExampleScenario3.node[26].veinsmobility co2emission ETV
vector 137 RSUExampleScenario3.node[27].veinsmobility speed ETV
vector 138 RSUExampleScenario3.node[28].veinsmobility posx ETV
vector 139 RSUExampleScenario3.node[28].veinsmobility posy ETV
vector 140 RSUExampleScenario3.node[29].veinsmobility posx ETV
vector 141 RSUExampleScenario3.node[29].veinsmobility posy ETV
vector 142 RSUExampleScenario3.node[27].veinsmobility acceleration ETV
vector 143 RSUExampleScenario3.node[27].veinsmobility co2emission ETV
vector 144 RSUExampleScenario3.node[28].veinsmobility speed ETV
vector 145 RSUExampleScenario3.node[29].veinsmobility speed ETV
vector 146 RSUExampleScenario3.node[28].veinsmobility acceleration ETV
vector 147 RSUExampleScenario3.node[28].veinsmobility co2emission ETV
vector 148 RSUExampleScenario3.node[29].veinsmobility acceleration ETV
vector 149 RSUExampleScenario3.node[29].veinsmobility co2emission ETV
vector 150 RSUExampleScenario3.node[30].veinsmobility posx ETV
vector 151 RSUExampleScenario3.node[30].veinsmobility posy ETV
vector 152 RSUExampleScenario3.node[31].veinsmobility posx ETV
vector 153 RSUExampleScenario3.node[31].veinsmobility posy ETV
vector 154 RSUExampleScenario3.node[30].veinsmobility speed ETV
vector 155 RSUExampleScenario3.node[31].veinsmobility speed ETV
vector 156 RSUExampleScenario3.node[32].veinsmobility posx ETV
vector 157 RSUExampleScenario3.node[32].veinsmobility posy ETV
vector 158 RSUExampleScenario3.node[30].veinsmobility acceleration ETV
vector 159 RSUExampleScenario3.node[30].veinsmobility co2emission ETV
vector 160 RSUExampleScenario3.node[31].veinsmobility acceleration ETV
vector 161 RSUExampleScenario3.node[31].veinsmobility co2emission ETV
vector 162 RSUExampleScenario3.node[33].veinsmobility posx ETV
vector 163 RSUExampleScenario3.node[33].veinsmobility posy ETV
vector 164 RSUExampleScenario3.node[32].veinsmobility speed ETV
vector 165 RSUExampleScenario3.node[32].veinsmobility acceleration ETV
vector 166 RSUExampleScenario3.node[32].veinsmobility co2emission ETV
vector 167 RSUExampleScenario3.node[33].veinsmobility speed ETV
vector 168 RSUExampleScenario3.node[34].veinsmobility posx ETV
vector 169 RSUExampleScenario3.node[34].veinsmobility posy ETV
vector 170 RSUExampleScenario3.node[35].veinsmobility posx ETV
vector 171 RSUExampleScenario3.node[35].veinsmobility posy ETV
vector 172 RSUExampleScenario3.node[33].veinsmobility acceleration ETV
vector 173 RSUExampleScenario3.node[33].veinsmobility co2emission ETV
vector 174 RSUExampleScenario3.node[34].veinsmobility speed ETV
vector 175 RSUExampleScenario3.node[35].veinsmobility speed ETV
vector 176 RSUExampleScenario3.node[36].veinsmobility posx ETV
vector 177 RSUExampleScenario3.node[36].veinsmobility posy ETV
vector 178 RSUExampleScenario3.node[34].veinsmobility acceleration ETV
vector 179 RSUExampleScenario3.node[34].veinsmobility co2emission ETV
vector 180 RSUExampleScenario3.node[35].veinsmobility acceleration ETV
vector 181 RSUExampleScenario3.node[35].veinsmobility co2emission ETV
vector 182 RSUExampleScenario3.node[37].veinsmobility posx ETV
vector 183 RSUExampleScenario3.node[37].veinsmobility posy ETV
vector 184 RSUExampleScenario3.node[36].veinsmobility speed ETV
vector 185 RSUExampleScenario3.node[36].veinsmobility acceleration ETV
vector 186 RSUExampleScenario3.node[36].veinsmobility co2emission ETV
vector 187 RSUExampleScenario3.node[37].veinsmobility speed ETV
vector 188 RSUExampleScenario3.node[38].veinsmobility posx ETV
vector 189 RSUExampleScenario3.node[38].veinsmobility posy ETV
vector 190 RSUExampleScenario3.node[39].veinsmobility posx ETV
vector 191 RSUExampleScenario3.node[39].veinsmobility posy ETV
vector 192 RSUExampleScenario3.node[37].veinsmobility acceleration ETV
vector 193 RSUExampleScenario3.node[37].veinsmobility co2emission ETV
vector 194 RSUExampleScenario3.node[38].veinsmobility speed ETV
vector 195 RSUExampleScenario3.node[39].veinsmobility speed ETV
vector 196 RSUExampleScenario3.node[38].veinsmobility acceleration ETV
vector 197 RSUExampleScenario3.node[38].veinsmobility co2emission ETV
vector 198 RSUExampleScenario3.node[39].veinsmobility acceleration ETV
vector 199 RSUExampleScenario3.node[39].veinsmobility co2emission ETV
vector 200 RSUExampleScenario3.node[40].veinsmobility posx ETV
vector 201 RSUExampleScenario3.node[40].veinsmobility posy ETV
vector 202 RSUExampleScenario3.node[41].veinsmobility posx ETV
vector 203 RSUExampleScenario3.node[41].veinsmobility posy ETV
vector 204 RSUExampleScenario3.node[40].veinsmobility speed ETV
vector 205 RSUExampleScenario3.node[41].veinsmobility speed ETV
vector 206 RSUExampleScenario3.node[42].veinsmobility posx ETV
vector 207 RSUExampleScenario3.node[42].veinsmobility posy ETV
vector 208 RSUExampleScenario3.node[40].veinsmobility acceleration ETV
vector 209 RSUExampleScenario3.node[40].veinsmobility co2emission ETV
vector 210 RSUExampleScenario3.node[41].veinsmobility acceleration ETV
vector 211 RSUExampleScenario3.node[41].veinsmobility co2emission ETV
vector 212 RSUExampleScenario3.node[43].veinsmobility posx ETV
vector 213 RSUExampleScenario3.node[43].veinsmobility posy ETV
vector 214 RSUExampleScenario3.node[42].veinsmobility speed ETV
vector 215 RSUExampleScenario3.node[42].veinsmobility acceleration ETV
vector 216 RSUExampleScenario3.node[42].veinsmobility co2emission ETV
vector 217 RSUExampleScenario3.node[43].veinsmobility speed ETV
vector 218 RSUExampleScenario3.node[44].veinsmobility posx ETV
vector 219 RSUExampleScenario3.node[44].veinsmobility posy ETV
vector 220 RSUExampleScenario3.node[45].veinsmobility posx ETV
vector 221 RSUExampleScenario3.node[45].veinsmobility posy ETV
vector 222 RSUExampleScenario3.node[43].veinsmobility acceleration ETV
vector 223 RSUExampleScenario3.node[43].veinsmobility co2emission ETV
vector 224 RSUExampleScenario3.node[44].veinsmobility speed ETV
vector 225 RSUExampleScenario3.node[45].veinsmobility speed ETV
vector 226 RSUExampleScenario3.node[46].veinsmobility posx ETV
vector 227 RSUExampleScenario3.node[46].veinsmobility posy ETV
vector 228 RSUExampleScenario3.node[44].veinsmobility acceleration ETV
vector 229 RSUExampleScenario3.node[44].veinsmobility co2emission ETV
vector 230 RSUExampleScenario3.node[45].veinsmobility acceleration ETV
vector 231 RSUExampleScenario3.node[45].veinsmobility co2emission ETV
vector 232 RSUExampleScenario3.node[47].veinsmobility posx ETV
vector 233 RSUExampleScenario3.node[47].veinsmobility posy ETV
vector 234 RSUExampleScenario3.node[46].veinsmobility speed ETV
vector 235 RSUExampleScenario3.node[46].veinsmobility acceleration ETV
vector 236 RSUExampleScenario3.node[46].veinsmobility co2emission ETV
vector 237 RSUExampleScenario3.node[47].veinsmobility speed ETV
vector 238 RSUExampleScenario3.node[48].veinsmobility posx ETV
vector 239 RSUExampleScenario3.node[48].veinsmobility posy ETV
vector 240 RSUExampleScenario3.node[47].veinsmobility acceleration ETV
vector 241 RSUExampleScenario3.node[47].veinsmobility co2emission ETV
vector 242 RSUExampleScenario3.node[49].veinsmobility posx ETV
vector 243 RSUExampleScenario3.node[49].veinsmobility posy ETV
vector 244 RSUExampleScenario3.node[48].veinsmobility speed ETV
vector 245 RSUExampleScenario3.node[48].veinsmobility acceleration ETV
vector 246 RSUExampleScenario3.node[48].veinsmobility co2emission ETV
vector 247 RSUExampleScenario3.node[49].veinsmobility speed ETV
vector 248 RSUExampleScenario3.node[50].veinsmobility posx ETV
vector 249 RSUExampleScenario3.node[50].veinsmobility posy ETV
vector 250 RSUExampleScenario3.node[51].veinsmobility posx ETV
vector 251 RSUExampleScenario3.node[51].veinsmobility posy ETV
vector 252 RSUExampleScenario3.node[49].veinsmobility acceleration ETV
vector 253 RSUExampleScenario3.node[49].veinsmobility co2emission ETV
vector 254 RSUExampleScenario3.node[50].veinsmobility speed ETV
vector 255 RSUExampleScenario3.node[51].veinsmobility speed ETV
vector 256 RSUExampleScenario3.node[52].veinsmobility posx ETV
vector 257 RSUExampleScenario3.node[52].veinsmobility posy ETV
vector 258 RSUExampleScenario3.node[50].veinsmobility acceleration ETV
vector 259 RSUExampleScenario3.node[50].veinsmobility co2emission ETV
vector 260 RSUExampleScenario3.node[51].veinsmobility acceleration ETV
vector 261 RSUExampleScenario3.node[51].veinsmobility co2emission ETV
vector 262 RSUExampleScenario3.node[53].veinsmobility posx ETV
vector 263 RSUExampleScenario3.node[53].veinsmobility posy ETV
vector 264 RSUExampleScenario3.node[52].veinsmobility speed ETV
vector 265 RSUExampleScenario3.node[52].veinsmobility acceleration ETV
vector 266 RSUExampleScenario3.node[52].veinsmobility co2emission ETV
vector 267 RSUExampleScenario3.node[53].veinsmobility speed ETV
vector 268 RSUExampleScenario3.node[54].veinsmobility posx ETV
vector 269 RSUExampleScenario3.node[54].veinsmobility posy ETV
vector 270 RSUExampleScenario3.node[55].veinsmobility posx ETV
vector 271 RSUExampleScenario3.node[55].veinsmobility posy ETV
vector 272 RSUExampleScenario3.node[53].veinsmobility acceleration ETV
vector 273 RSUExampleScenario3.node[53].veinsmobility co2emission ETV
vector 274 RSUExampleScenario3.node[54].veinsmobility speed ETV
vector 275 RSUExampleScenario3.node[55].veinsmobility speed ETV
vector 276 RSUExampleScenario3.node[54].veinsmobility acceleration ETV
vector 277 RSUExampleScenario3.node[54].veinsmobility co2emission ETV
vector 278 RSUExampleScenario3.node[55].veinsmobility acceleration ETV
vector 279 RSUExampleScenario3.node[55].veinsmobility co2emission ETV
vector 280 RSUExampleScenario3.node[56].veinsmobility posx ETV
vector 281 RSUExampleScenario3.node[56].veinsmobility posy ETV
vector 282 RSUExampleScenario3.node[57].veinsmobility posx ETV
vector 283 RSUExampleScenario3.node[57].veinsmobility posy ETV
vector 284 RSUExampleScenario3.node[56].veinsmobility speed ETV
vector 285 RSUExampleScenario3.node[57].veinsmobility speed ETV
vector 286 RSUExampleScenario3.node[58].veinsmobility posx ETV
vector 287 RSUExampleScenario3.node[58].veinsmobility posy ETV
vector 288 RSUExampleScenario3.node[56].veinsmobility acceleration ETV
vector 289 RSUExampleScenario3.node[56].veinsmobility co2emission ETV
vector 290 RSUExampleScenario3.node[57].veinsmobility acceleration ETV
vector 291 RSUExampleScenario3.node[57].veinsmobility co2emission ETV
vector 292 RSUExampleScenario3.node[59].veinsmobility posx ETV
vector 293 RSUExampleScenario3.node[59].veinsmobility posy ETV
vector 294 RSUExampleScenario3.node[58].veinsmobility speed ETV
vector 295 RSUExampleScenario3.node[58].veinsmobility acceleration ETV
vector 296 RSUExampleScenario3.node[58].veinsmobility co2emission ETV
vector 297 RSUExampleScenario3.node[59].veinsmobility speed ETV
vector 298 RSUExampleScenario3.node[60].veinsmobility posx ETV
vector 299 RSUExampleScenario3.node[60].veinsmobility posy ETV
vector 300 RSUExampleScenario3.node[61].veinsmobility posx ETV
vector 301 RSUExampleScenario3.node[61].veinsmobility posy ETV
vector 302 RSUExampleScenario3.node[59].veinsmobility acceleration ETV
vector 303 RSUExampleScenario3.node[59].veinsmobility co2emission ETV
vector 304 RSUExampleScenario3.node[60].veinsmobility speed ETV
vector 305 RSUExampleScenario3.node[61].veinsmobility speed ETV
vector 306 RSUExampleScenario3.node[60].veinsmobility acceleration ETV
vector 307 RSUExampleScenario3.node[60].veinsmobility co2emission ETV
vector 308 RSUExampleScenario3.node[61].veinsmobility acceleration ETV
vector 309 RSUExampleScenario3.node[61].veinsmobility co2emission ETV
vector 310 RSUExampleScenario3.node[62].veinsmobility posx ETV
vector 311 RSUExampleScenario3.node[62].veinsmobility posy ETV
vector 312 RSUExampleScenario3.node[63].veinsmobility posx ETV
vector 313 RSUExampleScenario3.node[63].veinsmobility posy ETV
vector 314 RSUExampleScenario3.node[62].veinsmobility speed ETV
vector 315 RSUExampleScenario3.node[63].veinsmobility speed ETV
vector 316 RSUExampleScenario3.node[64].veinsmobility posx ETV
vector 317 RSUExampleScenario3.node[64].veinsmobility posy ETV
vector 318 RSUExampleScenario3.node[62].veinsmobility acceleration ETV
vector 319 RSUExampleScenario3.node[62].veinsmobility co2emission ETV
vector 320 RSUExampleScenario3.node[63].veinsmobility acceleration ETV
vector 321 RSUExampleScenario3.node[63].veinsmobility co2emission ETV
vector 322 RSUExampleScenario3.node[65].veinsmobility posx ETV
vector 323 RSUExampleScenario3.node[65].veinsmobility posy ETV
vector 324 RSUExampleScenario3.node[64].veinsmobility speed ETV
vector 325 RSUExampleScenario3.node[64].veinsmobility acceleration ETV
vector 326 RSUExampleScenario3.node[64].veinsmobility co2emission ETV
vector 327 RSUExampleScenario3.node[65].veinsmobility speed ETV
vector 328 RSUExampleScenario3.node[66].veinsmobility posx ETV
vector 329 RSUExampleScenario3.node[66].veinsmobility posy ETV
vector 330 RSUExampleScenario3.node[67].veinsmobility posx ETV
vector 331 RSUExampleScenario3.node[67].veinsmobility posy ETV
vector 332 RSUExampleScenario3.node[65].veinsmobility acceleration ETV
vector 333 RSUExampleScenario3.node[65].veinsmobility co2emission ETV
vector 334 RSUExampleScenario3.node[66].veinsmobility speed ETV
vector 335 RSUExampleScenario3.node[67].veinsmobility speed ETV
vector 336 RSUExampleScenario3.node[66].veinsmobility acceleration ETV
vector 337 RSUExampleScenario3.node[66].veinsmobility co2emission ETV
vector 338 RSUExampleScenario3.node[67].veinsmobility acceleration ETV
vector 339 RSUExampleScenario3.node[67].veinsmobility co2emission ETV
vector 340 RSUExampleScenario3.node[68].veinsmobility posx ETV
vector 341 RSUExampleScenario3.node[68].veinsmobility posy ETV
vector 342 RSUExampleScenario3.node[69].veinsmobility posx ETV
vector 343 RSUExampleScenario3.node[69].veinsmobility posy ETV
vector 344 RSUExampleScenario3.node[68].veinsmobility speed ETV
vector 345 RSUExampleScenario3.node[69].veinsmobility speed ETV
vector 346 RSUExampleScenario3.node[70].veinsmobility posx ETV
vector 347 RSUExampleScenario3.node[70].veinsmobility posy ETV
vector 348 RSUExampleScenario3.node[71].veinsmobility posx ETV
vector 349 RSUExampleScenario3.node[71].veinsmobility posy ETV
vector 350 RSUExampleScenario3.node[68].veinsmobility acceleration ETV
vector 351 RSUExampleScenario3.node[68].veinsmobility co2emission ETV
vector 352 RSUExampleScenario3.node[69].veinsmobility acceleration ETV
vector 353 RSUExampleScenario3.node[69].veinsmobility co2emission ETV
vector 354 RSUExampleScenario3.node[70].veinsmobility speed ETV
vector 355 RSUExampleScenario3.node[71].veinsmobility speed ETV
vector 356 RSUExampleScenario3.node[70].veinsmobility acceleration ETV
vector 357 RSUExampleScenario3.node[70].veinsmobility co2emission ETV
vector 358 RSUExampleScenario3.node[71].veinsmobility acceleration ETV
vector 359 RSUExampleScenario3.node[71].veinsmobility co2emission ETV
vector 360 RSUExampleScenario3.node[72].veinsmobility posx ETV
vector 361 RSUExampleScenario3.node[72].veinsmobility posy ETV
vector 362 RSUExampleScenario3.node[73].veinsmobility posx ETV
vector 363 RSUExampleScenario3.node[73].veinsmobility posy ETV
vector 364 RSUExampleScenario3.node[72].veinsmobility speed ETV
vector 365 RSUExampleScenario3.node[73].veinsmobility speed ETV
vector 366 RSUExampleScenario3.node[74].veinsmobility posx ETV
vector 367 RSUExampleScenario3.node[74].veinsmobility posy ETV
vector 368 RSUExampleScenario3.node[72].veinsmobility acceleration ETV
vector 369 RSUExampleScenario3.node[72].veinsmobility co2emission ETV
vector 370 RSUExampleScenario3.node[73].veinsmobility acceleration ETV
vector 371 RSUExampleScenario3.node[73].veinsmobility co2emission ETV
vector 372 RSUExampleScenario3.node[75].veinsmobility posx ETV
vector 373 RSUExampleScenario3.node[75].veinsmobility posy ETV
vector 374 RSUExampleScenario3.node[74].veinsmobility speed ETV
vector 375 RSUExampleScenario3.node[74].veinsmobility acceleration ETV
vector 376 RSUExampleScenario3.node[74].veinsmobility co2emission ETV
vector 377 RSUExampleScenario3.node[75].veinsmobility speed ETV
vector 378 RSUExampleScenario3.node[76].veinsmobility posx ETV
vector 379 RSUExampleScenario3.node[76].veinsmobility posy ETV
vector 380 RSUExampleScenario3.node[77].veinsmobility posx ETV
vector 381 RSUExampleScenario3.node[77].veinsmobility posy ETV
vector 382 RSUExampleScenario3.node[75].veinsmobility acceleration ETV
vector 383 RSUExampleScenario3.node[75].veinsmobility co2emission ETV
vector 384 RSUExampleScenario3.node[76].veinsmobility speed ETV
vector 385 RSUExampleScenario3.node[77].veinsmobility speed ETV
vector 386 RSUExampleScenario3.node[76].veinsmobility acceleration ETV
vector 387 RSUExampleScenario3.node[76].veinsmobility co2emission ETV
vector 388 RSUExampleScenario3.node[77].veinsmobility acceleration ETV
vector 389 RSUExampleScenario3.node[77].veinsmobility co2emission ETV
vector 390 RSUExampleScenario3.node[78].veinsmobility posx ETV
vector 391 RSUExampleScenario3.node[78].veinsmobility posy ETV
vector 392 RSUExampleScenario3.node[79].veinsmobility posx ETV
vector 393 RSUExampleScenario3.node[79].veinsmobility posy ETV
vector 394 RSUExampleScenario3.node[78].veinsmobility speed ETV
vector 395 RSUExampleScenario3.node[79].veinsmobility speed ETV
vector 396 RSUExampleScenario3.node[80].veinsmobility posx ETV
vector 397 RSUExampleScenario3.node[80].veinsmobility posy ETV
vector 398 RSUExampleScenario3.node[78].veinsmobility acceleration ETV
vector 399 RSUExampleScenario3.node[78].veinsmobility co2emission ETV
vector 400 RSUExampleScenario3.node[79].veinsmobility acceleration ETV
vector 401 RSUExampleScenario3.node[79].veinsmobility co2emission ETV
vector 402 RSUExampleScenario3.node[81].veinsmobility posx ETV
vector 403 RSUExampleScenario3.node[81].veinsmobility posy ETV
vector 404 RSUExampleScenario3.node[80].veinsmobility speed ETV
vector 405 RSUExampleScenario3.node[80].veinsmobility acceleration ETV
vector 406 RSUExampleScenario3.node[80].veinsmobility co2emission ETV
vector 407 RSUExampleScenario3.node[81].veinsmobility speed ETV
vector 408 RSUExampleScenario3.node[82].veinsmobility posx ETV
vector 409 RSUExampleScenario3.node[82].veinsmobility posy ETV
vector 410 RSUExampleScenario3.node[83].veinsmobility posx ETV
vector 411 RSUExampleScenario3.node[83].veinsmobility posy ETV
vector 412 RSUExampleScenario3.node[81].veinsmobility acceleration ETV
vector 413 RSUExampleScenario3.node[81].veinsmobility co2emission ETV
vector 414 RSUExampleScenario3.node[82].veinsmobility speed ETV
vector 415 RSUExampleScenario3.node[83].veinsmobility speed ETV
vector 416 RSUExampleScenario3.node[84].veinsmobility posx ETV
vector 417 RSUExampleScenario3.node[84].veinsmobility posy ETV
vector 418 RSUExampleScenario3.node[82].veinsmobility acceleration ETV
vector 419 RSUExampleScenario3.node[82].veinsmobility co2emission ETV
vector 420 RSUExampleScenario3.node[83].veinsmobility acceleration ETV
vector 421 RSUExampleScenario3.node[83].veinsmobility co2emission ETV
vector 422 RSUExampleScenario3.node[85].veinsmobility posx ETV
vector 423 RSUExampleScenario3.node[85].veinsmobility posy ETV
vector 424 RSUExampleScenario3.node[84].veinsmobility speed ETV
vector 425 RSUExampleScenario3.node[84].veinsmobility acceleration ETV
vector 426 RSUExampleScenario3.node[84].veinsmobility co2emission ETV
vector 427 RSUExampleScenario3.node[85].veinsmobility speed ETV
vector 428 RSUExampleScenario3.node[86].veinsmobility posx ETV
vector 429 RSUExampleScenario3.node[86].veinsmobility posy ETV
vector 430 RSUExampleScenario3.node[87].veinsmobility posx ETV
vector 431 RSUExampleScenario3.node[87].veinsmobility posy ETV
vector 432 RSUExampleScenario3.node[85].veinsmobility acceleration ETV
vector 433 RSUExampleScenario3.node[85].veinsmobility co2emission ETV
vector 434 RSUExampleScenario3.node[86].veinsmobility speed ETV
vector 435 RSUExampleScenario3.node[87].veinsmobility speed ETV
vector 436 RSUExampleScenario3.node[86].veinsmobility acceleration ETV
vector 437 RSUExampleScenario3.node[86].veinsmobility co2emission ETV
vector 438 RSUExampleScenario3.node[87].veinsmobility acceleration ETV
vector 439 RSUExampleScenario3.node[87].veinsmobility co2emission ETV
61	32113 2784 4152 324658 16 115 100 0.91920147887867 17.107476295645 390.54849450585 2556.5798399223
60	34897 3046 4152 324658 16 115 100 -0.74773613149637 2.0987672678265 22.693308552372 59.685480769518
54	37943 2874 3161 324658 15 115 101 3.796580258781 26.564242897899 1997.4888513401 42168.006486104
51	40817 1795 2404 324658 14 115 102 20.2 23.4 2335.6 53618.8
50	42612 2906 2404 324658 14 115 102 30.963601148731 2016.3895737246 91573.238313752 115877084.99735
vector 440 RSUExampleScenario3.node[88].veinsmobility posx ETV
vector 441 RSUExampleScenario3.node[88].veinsmobility posy ETV
vector 442 RSUExampleScenario3.node[89].veinsmobility posx ETV
vector 443 RSUExampleScenario3.node[89].veinsmobility posy ETV
vector 444 RSUExampleScenario3.node[88].veinsmobility speed ETV
vector 445 RSUExampleScenario3.node[89].veinsmobility speed ETV
vector 446 RSUExampleScenario3.node[88].veinsmobility acceleration ETV
vector 447 RSUExampleScenario3.node[88].veinsmobility co2emission ETV
vector 448 RSUExampleScenario3.node[89].veinsmobility acceleration ETV
vector 449 RSUExampleScenario3.node[89].veinsmobility co2emission ETV
vector 450 RSUExampleScenario3.node[90].veinsmobility posx ETV
vector 451 RSUExampleScenario3.node[90].veinsmobility posy ETV
vector 452 RSUExampleScenario3.node[91].veinsmobility posx ETV
vector 453 RSUExampleScenario3.node[91].veinsmobility posy ETV
vector 454 RSUExampleScenario3.node[90].veinsmobility speed ETV
vector 455 RSUExampleScenario3.node[91].veinsmobility speed ETV
vector 456 RSUExampleScenario3.node[92].veinsmobility posx ETV
vector 457 RSUExampleScenario3.node[92].veinsmobility posy ETV
vector 458 RSUExampleScenario3.node[93].veinsmobility posx ETV
vector 459 RSUExampleScenario3.node[93].veinsmobility posy ETV
vector 460 RSUExampleScenario3.node[90].veinsmobility acceleration ETV
vector 461 RSUExampleScenario3.node[90].veinsmobility co2emission ETV
vector 462 RSUExampleScenario3.node[91].veinsmobility acceleration ETV
vector 463 RSUExampleScenario3.node[91].veinsmobility co2emission ETV
vector 464 RSUExampleScenario3.node[92].veinsmobility speed ETV
vector 465 RSUExampleScenario3.node[93].veinsmobility speed ETV
vector 466 RSUExampleScenario3.node[92].veinsmobility acceleration ETV
vector 467 RSUExampleScenario3.node[92].veinsmobility co2emission ETV
vector 468 RSUExampleScenario3.node[93].veinsmobility acceleration ETV
vector 469 RSUExampleScenario3.node[93].veinsmobility co2emission ETV
vector 470 RSUExampleScenario3.node[94].veinsmobility posx ETV
vector 471 RSUExampleScenario3.node[94].veinsmobility posy ETV
vector 472 RSUExampleScenario3.node[95].veinsmobility posx ETV
vector 473 RSUExampleScenario3.node[95].veinsmobility posy ETV
17	47756 3380 164 374479 5 124 120 0.973 9.8831827510753 320.0067630318 1050.1990490739
16	51136 3697 164 374479 5 124 120 -0.51306005076125 2.0317535525234 14.079306535757 28.833123233904
14	54833 3429 69 374479 4 124 121 2.8891950801346 17.09125942168 1996.8153259822 33519.849792472
7	58262 2002 62 374479 3 124 122 20.2 23.4 2515.6 52013.2
6	60264 3330 62 374479 3 124 122 30.251563095197 2019.9174048987 121029.75960494 163407971.7723
vector 474 RSUExampleScenario3.node[94].veinsmobility speed ETV
vector 475 RSUExampleScenario3.node[95].veinsmobility speed ETV
vector 476 RSUExampleScenario3.node[96].veinsmobility posx ETV
vector 477 RSUExampleScenario3.node[96].veinsmobility posy ETV
vector 478 RSUExampleScenario3.node[94].veinsmobility acceleration ETV
vector 479 RSUExampleScenario3.node[94].veinsmobility co2emission ETV
vector 480 RSUExampleScenario3.node[95].veinsmobility acceleration ETV
vector 481 RSUExampleScenario3.node[95].veinsmobility co2emission ETV
vector 482 RSUExampleScenario3.node[97].veinsmobility posx ETV
vector 483 RSUExampleScenario3.node[97].veinsmobility posy ETV
vector 484 RSUExampleScenario3.node[96].veinsmobility speed ETV
67	64320 3129 6178 391958 18 127 110 0.78012022409393 11.618827548339 336.60723542683 1487.5921760102
66	67449 3412 6178 391958 18 127 110 -0.71949775625045 2.0846657848335 17.171572101831 42.604876527622
64	70861 3186 5029 391958 17 127 111 2.6343055077127 19.908775681448 1998.8240405717 36989.292900321
57	74047 1991 4152 391958 16 127 112 20.2 23.4 2476.8 55048.32
56	76038 3213 4152 391958 16 127 112 30.175183473459 2019.566742619 107920.76591344 143552319.5099
vector 485 RSUExampleScenario3.node[96].veinsmobility acceleration ETV
vector 486 RSUExampleScenario3.node[96].veinsmobility co2emission ETV
vector 487 RSUExampleScenario3.node[97].veinsmobility speed ETV
vector 488 RSUExampleScenario3.node[98].veinsmobility posx ETV
vector 489 RSUExampleScenario3.node[98].veinsmobility posy ETV
vector 490 RSUExampleScenario3.node[99].veinsmobility posx ETV
vector 491 RSUExampleScenario3.node[99].veinsmobility posy ETV
vector 492 RSUExampleScenario3.node[97].veinsmobility acceleration ETV
vector 493 RSUExampleScenario3.node[97].veinsmobility co2emission ETV
vector 494 RSUExampleScenario3.node[98].veinsmobility speed ETV
vector 495 RSUExampleScenario3.node[99].veinsmobility speed ETV
vector 496 RSUExampleScenario3.node[98].veinsmobility acceleration ETV
vector 497 RSUExampleScenario3.node[98].veinsmobility co2emission ETV
vector 498 RSUExampleScenario3.node[99].veinsmobility acceleration ETV
vector 499 RSUExampleScenario3.node[99].veinsmobility co2emission ETV
vector 500 RSUExampleScenario3.node[100].veinsmobility posx ETV
vector 501 RSUExampleScenario3.node[100].veinsmobility posy ETV
vector 502 RSUExampleScenario3.node[101].veinsmobility posx ETV
vector 503 RSUExampleScenario3.node[101].veinsmobility posy ETV
vector 504 RSUExampleScenario3.node[100].veinsmobility speed ETV
vector 505 RSUExampleScenario3.node[101].veinsmobility speed ETV
79	80645 3217 9357 427525 21 133 113 0.973 10.275054461819 325.52480710195 1214.9641222603
78	83862 3531 9357 427525 21 133 113 -0.65229969152219 2.1060206571361 14.71395333734 33.056327767707
74	87393 3289 8046 427525 20 133 114 3.4355772418382 18.260868596747 1986.3983575339 35261.59245197
71	90682 2057 7049 427525 19 133 115 20.2 23.4 2508.6 55016.76
70	92739 3307 7049 427525 19 133 115 30.472695218614 2010.2102482382 112637.49373744 151092132.00112
vector 506 RSUExampleScenario3.node[102].veinsmobility posx ETV
vector 507 RSUExampleScenario3.node[102].veinsmobility posy ETV
vector 508 RSUExampleScenario3.node[103].veinsmobility posx ETV
vector 509 RSUExampleScenario3.node[103].veinsmobility posy ETV
vector 510 RSUExampleScenario3.node[100].veinsmobility acceleration ETV
vector 511 RSUExampleScenario3.node[100].veinsmobility co2emission ETV
vector 512 RSUExampleScenario3.node[101].veinsmobility acceleration ETV
vector 513 RSUExampleScenario3.node[101].veinsmobility co2emission ETV
37	96588 3564 473 434857 10 134 125 0.973 9.1883197353744 318.3855248226 980.32302513342
36	100152 3876 473 434857 10 134 125 -0.3229148851881 2.061302585958 13.813717100729 27.831597964198
34	104028 3609 316 434857 9 134 126 2.5175937346532 16.422641172583 2001.7881375252 32324.231443082
27	107637 2246 309 434857 8 134 127 20.2 23.4 2747.8 59773.72
26	109883 3626 309 434857 8 134 127 30.125997426319 2024.404696988 126496.71899717 171160353.16973
vector 514 RSUExampleScenario3.node[102].veinsmobility speed ETV
vector 515 RSUExampleScenario3.node[103].veinsmobility speed ETV
vector 516 RSUExampleScenario3.node[102].veinsmobility acceleration ETV
vector 517 RSUExampleScenario3.node[102].veinsmobility co2emission ETV
vector 518 RSUExampleScenario3.node[103].veinsmobility acceleration ETV
vector 519 RSUExampleScenario3.node[103].veinsmobility co2emission ETV
vector 520 RSUExampleScenario3.node[104].veinsmobility posx ETV
vector 521 RSUExampleScenario3.node[104].veinsmobility posy ETV
vector 522 RSUExampleScenario3.node[105].veinsmobility posx ETV
vector 523 RSUExampleScenario3.node[105].veinsmobility posy ETV
vector 524 RSUExampleScenario3.node[104].veinsmobility speed ETV
vector 525 RSUExampleScenario3.node[105].veinsmobility speed ETV
vector 526 RSUExampleScenario3.node[104].veinsmobility acceleration ETV
vector 527 RSUExampleScenario3.node[104].veinsmobility co2emission ETV
vector 528 RSUExampleScenario3.node[105].veinsmobility acceleration ETV
vector 529 RSUExampleScenario3.node[105].veinsmobility co2emission ETV
vector 530 RSUExampleScenario3.node[106].veinsmobility posx ETV
vector 531 RSUExampleScenario3.node[106].veinsmobility posy ETV
vector 532 RSUExampleScenario3.node[107].veinsmobility posx ETV
vector 533 RSUExampleScenario3.node[107].veinsmobility posy ETV
vector 534 RSUExampleScenario3.node[106].veinsmobility speed ETV
vector 535 RSUExampleScenario3.node[107].veinsmobility speed ETV
vector 536 RSUExampleScenario3.node[108].veinsmobility posx ETV
vector 537 RSUExampleScenario3.node[108].veinsmobility posy ETV
vector 538 RSUExampleScenario3.node[109].veinsmobility posx ETV
vector 539 RSUExampleScenario3.node[109].veinsmobility posy ETV
vector 540 RSUExampleScenario3.node[106].veinsmobility acceleration ETV
vector 541 RSUExampleScenario3.node[106].veinsmobility co2emission ETV
vector 542 RSUExampleScenario3.node[107].veinsmobility acceleration ETV
vector 543 RSUExampleScenario3.node[107].veinsmobility co2emission ETV
11	115525 3996 62 485040 3 142 140 1.6770714337098 8.3695043325852 313.47627809321 805.62046958478
10	119521 4345 62 485040 3 142 140 -0.11385546249337 2.0209709010622 10.212234319319 19.235980496492
4	123866 3869 9 485040 2 142 141 4.0758362758249 14.411491977713 1989.92945755 28321.280992261
1	127735 2348 2 485040 1 142 142 20.2 20.2 2868.4 57941.68
0	130083 3893 2 485040 1 142 142 31.18869740985 2016.1817110161 142751.75262918 192429295.8725
vector 544 RSUExampleScenario3.node[108].veinsmobility speed ETV
vector 545 RSUExampleScenario3.node[109].veinsmobility speed ETV
vector 546 RSUExampleScenario3.node[108].veinsmobility acceleration ETV
vector 547 RSUExampleScenario3.node[108].veinsmobility co2emission ETV
vector 548 RSUExampleScenario3.node[109].veinsmobility acceleration ETV
vector 549 RSUExampleScenario3.node[109].veinsmobility co2emission ETV
vector 550 RSUExampleScenario3.node[110].veinsmobility posx ETV
vector 551 RSUExampleScenario3.node[110].veinsmobility posy ETV
vector 552 RSUExampleScenario3.node[111].veinsmobility posx ETV
vector 553 RSUExampleScenario3.node[111].veinsmobility posy ETV
vector 554 RSUExampleScenario3.node[110].veinsmobility speed ETV
vector 555 RSUExampleScenario3.node[111].veinsmobility speed ETV
vector 556 RSUExampleScenario3.node[112].veinsmobility posx ETV
vector 557 RSUExampleScenario3.node[112].veinsmobility posy ETV
vector 558 RSUExampleScenario3.node[110].veinsmobility acceleration ETV
vector 559 RSUExampleScenario3.node[110].veinsmobility co2emission ETV
vector 560 RSUExampleScenario3.node[111].veinsmobility acceleration ETV
vector 561 RSUExampleScenario3.node[111].veinsmobility co2emission ETV
31	135192 3995 309 517926 8 147 140 0.973 8.2813639988505 329.43701891695 967.35672103039
30	139187 4375 309 517926 8 147 140 -3.1742110229049 2.123639456688 10.683677440723 45.119747943761
24	143562 4037 172 517926 7 147 141 3.7661444520794 14.50334899205 1988.1623814542 28339.268549003
21	147599 2521 165 517926 6 147 142 20.2 20.2 2868.4 57941.68
20	150120 4070 165 517926 6 147 142 30.766201679119 2014.2304101785 142425.60912777 191539176.46141
vector 562 RSUExampleScenario3.node[113].veinsmobility posx ETV
vector 563 RSUExampleScenario3.node[113].veinsmobility posy ETV
vector 564 RSUExampleScenario3.node[112].veinsmobility speed ETV
vector 565 RSUExampleScenario3.node[112].veinsmobility acceleration ETV
vector 566 RSUExampleScenario3.node[112].veinsmobility co2emission ETV
vector 567 RSUExampleScenario3.node[113].veinsmobility speed ETV
vector 568 RSUExampleScenario3.node[114].veinsmobility posx ETV
vector 569 RSUExampleScenario3.node[114].veinsmobility posy ETV
vector 570 RSUExampleScenario3.node[115].veinsmobility posx ETV
vector 571 RSUExampleScenario3.node[115].veinsmobility posy ETV
vector 572 RSUExampleScenario3.node[113].veinsmobility acceleration ETV
vector 573 RSUExampleScenario3.node[113].veinsmobility co2emission ETV
vector 574 RSUExampleScenario3.node[114].veinsmobility speed ETV
vector 575 RSUExampleScenario3.node[115].veinsmobility speed ETV
vector 576 RSUExampleScenario3.node[114].veinsmobility acceleration ETV
vector 577 RSUExampleScenario3.node[114].veinsmobility co2emission ETV
vector 578 RSUExampleScenario3.node[115].veinsmobility acceleration ETV
vector 579 RSUExampleScenario3.node[115].veinsmobility co2emission ETV
vector 580 RSUExampleScenario3.node[116].veinsmobility posx ETV
vector 581 RSUExampleScenario3.node[116].veinsmobility posy ETV
vector 582 RSUExampleScenario3.node[117].veinsmobility posx ETV
vector 583 RSUExampleScenario3.node[117].veinsmobility posy ETV
vector 584 RSUExampleScenario3.node[116].veinsmobility speed ETV
vector 585 RSUExampleScenario3.node[117].veinsmobility speed ETV
vector 586 RSUExampleScenario3.node[118].veinsmobility posx ETV
vector 587 RSUExampleScenario3.node[118].veinsmobility posy ETV
vector 588 RSUExampleScenario3.node[116].veinsmobility acceleration ETV
vector 589 RSUExampleScenario3.node[116].veinsmobility co2emission ETV
vector 590 RSUExampleScenario3.node[117].veinsmobility acceleration ETV
vector 591 RSUExampleScenario3.node[117].veinsmobility co2emission ETV
113	156206 3587 20227 572532 29 155 127 0.973 19.46523769158 472.80934045516 3561.7470039682
112	159793 4051 20227 572532 29 155 127 -1.1441203443125 2.0681261125114 28.11909533153 78.653697600234
105	163844 3849 18441 572532 28 155 128 3.9950144713569 32.183938950385 2003.3699647532 39484.980317112
103	167693 2471 17084 572532 27 155 129 23.4 23.4 3018.6 70635.24
102	170164 3883 17084 572532 27 155 129 30.950906303934 2020.4856642813 103675.66941312 118724452.41851
63	174047 3983 4152 572532 16 155 140 0.973 8.6604101222163 324.01209428229 932.42249808472
62	178030 4389 4152 572532 16 155 140 -0.91171741973057 2.2124509256124 11.205695350988 31.613852785841
55	182419 4067 3161 572532 15 155 141 3.8855814393266 15.161654579249 1993.3896346671 29042.941463825
53	186486 2555 2404 572532 14 155 142 20.2 23.4 2922.8 60313.52
52	189041 4109 2404 572532 14 155 142 30.977692448856 2018.6177026515 136927.33443445 183804206.56428
vector 592 RSUExampleScenario3.node[119].veinsmobility posx ETV
vector 593 RSUExampleScenario3.node[119].veinsmobility posy ETV
vector 594 RSUExampleScenario3.node[118].veinsmobility speed ETV
136	193343 3342 32451 578801 36 156 121 0.973 18.80628235611 471.97250952528 3536.9478288902
135	196685 3836 32451 578801 36 156 121 -1.015814093218 2.2014368001092 29.655738658913 83.062384830129
134	200521 3670 30471 578801 35 156 122 2.5107067836957 32.166445442609 1997.2299725283 40167.539882088
127	204191 2365 28817 578801 34 156 123 23.4 23.4 2878.2 67349.88
126	206556 3704 28817 578801 34 156 123 30.125252673993 2013.2131787109 100519.7377334 116302034.58771
vector 595 RSUExampleScenario3.node[118].veinsmobility acceleration ETV
vector 596 RSUExampleScenario3.node[118].veinsmobility co2emission ETV
vector 597 RSUExampleScenario3.node[119].veinsmobility speed ETV
vector 598 RSUExampleScenario3.node[120].veinsmobility posx ETV
vector 599 RSUExampleScenario3.node[120].veinsmobility posy ETV
vector 600 RSUExampleScenario3.node[121].veinsmobility posx ETV
vector 601 RSUExampleScenario3.node[121].veinsmobility posy ETV
vector 602 RSUExampleScenario3.node[119].veinsmobility acceleration ETV
vector 603 RSUExampleScenario3.node[119].veinsmobility co2emission ETV
vector 604 RSUExampleScenario3.node[120].veinsmobility speed ETV
vector 605 RSUExampleScenario3.node[121].veinsmobility speed ETV
vector 606 RSUExampleScenario3.node[120].veinsmobility acceleration ETV
vector 607 RSUExampleScenario3.node[120].veinsmobility co2emission ETV
vector 608 RSUExampleScenario3.node[121].veinsmobility acceleration ETV
vector 609 RSUExampleScenario3.node[121].veinsmobility co2emission ETV
vector 610 RSUExampleScenario3.node[122].veinsmobility posx ETV
vector 611 RSUExampleScenario3.node[122].veinsmobility posy ETV
vector 612 RSUExampleScenario3.node[123].veinsmobility posx ETV
vector 613 RSUExampleScenario3.node[123].veinsmobility posy ETV
vector 614 RSUExampleScenario3.node[122].veinsmobility speed ETV
vector 615 RSUExampleScenario3.node[123].veinsmobility speed ETV
33	211669 4307 309 620934 8 162 155 0.973 13.191949155717 387.08745778588 1583.8172433699
32	215976 4812 309 620934 8 162 155 -0.87811305886588 2.0551911866362 17.769903452248 55.9324239221
25	220788 4490 172 620934 7 162 156 3.6577400095722 21.538420776857 1996.2342262658 30553.807006054
23	225278 2806 165 620934 6 162 157 20.2 23.4 3568.2 81362.76
22	228084 4509 165 620934 6 162 157 30.774109032202 2019.1391077931 125408.29846147 149743892.54877
vector 616 RSUExampleScenario3.node[124].veinsmobility posx ETV
vector 617 RSUExampleScenario3.node[124].veinsmobility posy ETV
vector 618 RSUExampleScenario3.node[125].veinsmobility posx ETV
vector 619 RSUExampleScenario3.node[125].veinsmobility posy ETV
vector 620 RSUExampleScenario3.node[122].veinsmobility acceleration ETV
vector 621 RSUExampleScenario3.node[122].veinsmobility co2emission ETV
vector 622 RSUExampleScenario3.node[123].veinsmobility acceleration ETV
vector 623 RSUExampleScenario3.node[123].veinsmobility co2emission ETV
vector 624 RSUExampleScenario3.node[124].veinsmobility speed ETV
vector 625 RSUExampleScenario3.node[125].veinsmobility speed ETV
vector 626 RSUExampleScenario3.node[124].veinsmobility acceleration ETV
vector 627 RSUExampleScenario3.node[124].veinsmobility co2emission ETV
vector 628 RSUExampleScenario3.node[125].veinsmobility acceleration ETV
vector 629 RSUExampleScenario3.node[125].veinsmobility co2emission ETV
vector 630 RSUExampleScenario3.node[126].veinsmobility posx ETV
vector 631 RSUExampleScenario3.node[126].veinsmobility posy ETV
vector 632 RSUExampleScenario3.node[127].veinsmobility posx ETV
vector 633 RSUExampleScenario3.node[127].veinsmobility posy ETV
vector 634 RSUExampleScenario3.node[126].veinsmobility speed ETV
vector 635 RSUExampleScenario3.node[127].veinsmobility speed ETV
vector 636 RSUExampleScenario3.node[128].veinsmobility posx ETV
vector 637 RSUExampleScenario3.node[128].veinsmobility posy ETV
vector 638 RSUExampleScenario3.node[126].veinsmobility acceleration ETV
vector 639 RSUExampleScenario3.node[126].veinsmobility co2emission ETV
vector 640 RSUExampleScenario3.node[127].veinsmobility acceleration ETV
vector 641 RSUExampleScenario3.node[127].veinsmobility co2emission ETV
161	234351 3597 44956 666436 42 168 127 0.973 21.665472162592 464.89284945999 3630.8064233911
160	237948 4075 44956 666436 42 168 127 -1.0544284171751 2.101503175071 27.924477335305 84.06968529512
155	242023 3872 42382 666436 41 168 128 4.2253060459055 32.180244376553 1986.4834562096 36266.502755321
153	245895 2497 40425 666436 40 168 129 23.4 23.4 3018.6 70635.24
152	248392 3899 40425 666436 40 168 129 31.1489970914 2003.5048077747 109606.6347288 129465734.94462
vector 642 RSUExampleScenario3.node[129].veinsmobility posx ETV
vector 643 RSUExampleScenario3.node[129].veinsmobility posy ETV
vector 644 RSUExampleScenario3.node[128].veinsmobility speed ETV
179	252484 3430 56735 673035 47 169 123 0.88428876994234 18.648037194156 464.07378379192 3448.9272983371
178	255914 3941 56735 673035 47 169 123 -1.0088605340677 2.1708131940197 29.455420810042 85.243373787545
174	259855 3763 53948 673035 46 169 124 2.7115496496613 32.166970459703 1980.9771297826 36716.486383764
169	263618 2427 51752 673035 45 169 125 20.2 23.4 2905.8 67607.88
168	266045 3790 51752 673035 45 169 125 30.175358585067 1997.2345700341 106978.43669297 126877132.12286
vector 645 RSUExampleScenario3.node[128].veinsmobility acceleration ETV
vector 646 RSUExampleScenario3.node[128].veinsmobility co2emission ETV
vector 647 RSUExampleScenario3.node[129].veinsmobility speed ETV
vector 648 RSUExampleScenario3.node[130].veinsmobility posx ETV
vector 649 RSUExampleScenario3.node[130].veinsmobility posy ETV
vector 650 RSUExampleScenario3.node[131].veinsmobility posx ETV
vector 651 RSUExampleScenario3.node[131].veinsmobility posy ETV
vector 652 RSUExampleScenario3.node[129].veinsmobility acceleration ETV
vector 653 RSUExampleScenario3.node[129].veinsmobility co2emission ETV
193	270442 3385 64283 688340 50 171 122 0.973 18.780676398423 471.80161792582 3455.485617015
192	273827 3890 64283 688340 50 171 122 -1.1517482239824 2.3462993588089 28.376732832969 90.166118760744
187	277717 3735 61639 688340 49 171 123 3.6863539460448 32.063086779014 2007.012177748 37823.299141869
183	281452 2413 58980 688340 48 171 124 20.2 23.4 2824.8 64548.96
182	283865 3764 58980 688340 48 171 124 30.605923829239 2023.1734322869 108136.85028181 129979118.17508
99	287629 4057 15853 688340 26 171 146 0.973 10.451546762812 363.74779274622 1409.0849969083
98	291686 4571 15853 688340 26 171 146 -1.34534498436 2.1229665140551 15.007200264777 65.584196932094
95	296257 4278 14225 688340 25 171 147 2.9900832851509 18.025959783988 1989.747890351 28869.634709751
91	300535 2697 12988 688340 24 171 148 20.2 23.4 3325.6 75039.52
90	303232 4311 12988 688340 24 171 148 30.34806290716 2012.5742600805 132717.4378277 166900971.00204
vector 654 RSUExampleScenario3.node[130].veinsmobility speed ETV
vector 655 RSUExampleScenario3.node[131].veinsmobility speed ETV
vector 656 RSUExampleScenario3.node[130].veinsmobility acceleration ETV
vector 657 RSUExampleScenario3.node[130].veinsmobility co2emission ETV
vector 658 RSUExampleScenario3.node[131].veinsmobility acceleration ETV
vector 659 RSUExampleScenario3.node[131].veinsmobility co2emission ETV
vector 660 RSUExampleScenario3.node[132].veinsmobility posx ETV
vector 661 RSUExampleScenario3.node[132].veinsmobility posy ETV
vector 662 RSUExampleScenario3.node[133].veinsmobility posx ETV
vector 663 RSUExampleScenario3.node[133].veinsmobility posy ETV
vector 664 RSUExampleScenario3.node[132].veinsmobility speed ETV
vector 665 RSUExampleScenario3.node[133].veinsmobility speed ETV
vector 666 RSUExampleScenario3.node[134].veinsmobility posx ETV
vector 667 RSUExampleScenario3.node[134].veinsmobility posy ETV
vector 668 RSUExampleScenario3.node[132].veinsmobility acceleration ETV
vector 669 RSUExampleScenario3.node[132].veinsmobility co2emission ETV
vector 670 RSUExampleScenario3.node[133].veinsmobility acceleration ETV
vector 671 RSUExampleScenario3.node[133].veinsmobility co2emission ETV
vector 672 RSUExampleScenario3.node[135].veinsmobility posx ETV
vector 673 RSUExampleScenario3.node[135].veinsmobility posy ETV
vector 674 RSUExampleScenario3.node[134].veinsmobility speed ETV
vector 675 RSUExampleScenario3.node[134].veinsmobility acceleration ETV
vector 676 RSUExampleScenario3.node[134].veinsmobility co2emission ETV
vector 677 RSUExampleScenario3.node[135].veinsmobility speed ETV
vector 678 RSUExampleScenario3.node[136].veinsmobility posx ETV
vector 679 RSUExampleScenario3.node[136].veinsmobility posy ETV
vector 680 RSUExampleScenario3.node[137].veinsmobility posx ETV
vector 681 RSUExampleScenario3.node[137].veinsmobility posy ETV
vector 682 RSUExampleScenario3.node[135].veinsmobility acceleration ETV
vector 683 RSUExampleScenario3.node[135].veinsmobility co2emission ETV
vector 684 RSUExampleScenario3.node[136].veinsmobility speed ETV
vector 685 RSUExampleScenario3.node[137].veinsmobility speed ETV
166	309689 3831 49363 754637 44 180 137 0.973 10.565930605207 382.00474947026 1782.9873553099
165	313520 4400 49363 754637 44 180 137 -1.1981872478125 2.3238645734591 18.005616970595 68.733394322976
164	317920 4186 46970 754637 43 180 138 3.0333470970006 21.040845156676 1995.9836787318 31132.623115493
157	322106 2701 44956 754637 42 180 139 20.2 23.4 3159.8 72064.76
156	324807 4215 44956 754637 42 180 139 30.252226741318 2016.5516163095 126809.55376014 158920630.65376
vector 686 RSUExampleScenario3.node[138].veinsmobility posx ETV
vector 687 RSUExampleScenario3.node[138].veinsmobility posy ETV
vector 688 RSUExampleScenario3.node[136].veinsmobility acceleration ETV
vector 689 RSUExampleScenario3.node[136].veinsmobility co2emission ETV
vector 690 RSUExampleScenario3.node[137].veinsmobility acceleration ETV
vector 691 RSUExampleScenario3.node[137].veinsmobility co2emission ETV
vector 692 RSUExampleScenario3.node[139].veinsmobility posx ETV
vector 693 RSUExampleScenario3.node[139].veinsmobility posy ETV
vector 694 RSUExampleScenario3.node[138].veinsmobility speed ETV
vector 695 RSUExampleScenario3.node[138].veinsmobility acceleration ETV
vector 696 RSUExampleScenario3.node[138].veinsmobility co2emission ETV
vector 697 RSUExampleScenario3.node[139].veinsmobility speed ETV
vector 698 RSUExampleScenario3.node[140].veinsmobility posx ETV
vector 699 RSUExampleScenario3.node[140].veinsmobility posy ETV
vector 700 RSUExampleScenario3.node[141].veinsmobility posx ETV
vector 701 RSUExampleScenario3.node[141].veinsmobility posy ETV
vector 702 RSUExampleScenario3.node[139].veinsmobility acceleration ETV
vector 703 RSUExampleScenario3.node[139].veinsmobility co2emission ETV
vector 704 RSUExampleScenario3.node[140].veinsmobility speed ETV
vector 705 RSUExampleScenario3.node[141].veinsmobility speed ETV
vector 706 RSUExampleScenario3.node[140].veinsmobility acceleration ETV
vector 707 RSUExampleScenario3.node[140].veinsmobility co2emission ETV
vector 708 RSUExampleScenario3.node[141].veinsmobility acceleration ETV
vector 709 RSUExampleScenario3.node[141].veinsmobility co2emission ETV
vector 710 RSUExampleScenario3.node[142].veinsmobility posx ETV
vector 711 RSUExampleScenario3.node[142].veinsmobility posy ETV
vector 712 RSUExampleScenario3.node[143].veinsmobility posx ETV
vector 713 RSUExampleScenario3.node[143].veinsmobility posy ETV
143	330908 4370 34427 810201 37 187 151 0.973 8.5124632282718 340.47700061584 1087.4613055055
142	335278 4891 34427 810201 37 187 151 -1.1211087581726 2.0958500361699 10.775728300555 45.316513828839
137	340169 4607 32451 810201 36 187 152 3.9533111912489 14.770696355154 1993.9919673288 26735.395667159
133	344776 2967 30471 810201 35 187 153 20.2 23.4 3413.8 76521.64
132	347743 4638 30471 810201 35 187 153 30.984553026136 2019.8646763468 148195.12976208 194967649.34747
vector 714 RSUExampleScenario3.node[142].veinsmobility speed ETV
vector 715 RSUExampleScenario3.node[143].veinsmobility speed ETV
vector 716 RSUExampleScenario3.node[144].veinsmobility posx ETV
vector 717 RSUExampleScenario3.node[144].veinsmobility posy ETV
vector 718 RSUExampleScenario3.node[142].veinsmobility acceleration ETV
vector 719 RSUExampleScenario3.node[142].veinsmobility co2emission ETV
vector 720 RSUExampleScenario3.node[143].veinsmobility acceleration ETV
vector 721 RSUExampleScenario3.node[143].veinsmobility co2emission ETV
129	352925 4392 28817 826789 34 189 156 0.973 9.9581261376564 364.06522974515 1269.6192434304
128	357317 5028 28817 826789 34 189 156 -1.2290021403424 2.0448540989636 13.8980912624 59.468369471335
124	362345 4760 26716 826789 33 189 157 2.9753145344391 16.877632860718 2001.2951505712 26924.405374276
121	367105 3061 25119 826789 32 189 158 20.2 23.4 3489.2 77445.68
120	370166 4778 25119 826789 32 189 158 30.350354883244 2024.1658800058 147251.0261081 188821524.15542
vector 722 RSUExampleScenario3.node[145].veinsmobility posx ETV
vector 723 RSUExampleScenario3.node[145].veinsmobility posy ETV
vector 724 RSUExampleScenario3.node[144].veinsmobility speed ETV
147	375137 4447 38594 833931 39 190 152 0.973 11.477997774076 374.62024731359 1428.8936120404
146	379584 4920 38594 833931 39 190 152 -1.5822451700525 2.1906906314357 16.087398409106 63.503342254188
144	384504 4645 36264 833931 38 190 153 2.6497975318867 19.240491187018 1995.6847702022 28037.783362077
139	389149 2991 34427 833931 37 190 154 20.2 23.4 3456.4 77906.32
138	392140 4667 34427 833931 37 190 154 30.176680993308 2017.3193874981 137266.50656184 173975172.79856
vector 725 RSUExampleScenario3.node[144].veinsmobility acceleration ETV
vector 726 RSUExampleScenario3.node[144].veinsmobility co2emission ETV
vector 727 RSUExampleScenario3.node[145].veinsmobility speed ETV
117	397015 4739 23648 842258 31 191 161 0.973 9.3401899014108 369.7738174335 1225.6706958864
116	401754 5203 23648 842258 31 191 161 -1.1234002689901 2.1245187077217 16.711711286673 46.426321826503
114	406957 4906 21704 842258 30 191 162 2.2561355173019 18.967846803975 1989.5950550889 27013.520934059
107	411863 3155 20227 842258 29 191 163 20.2 23.4 3615.8 80602.04
106	415018 4920 20227 842258 29 191 163 30.1 2011.3315004668 138981.80793928 172999952.62443
vector 728 RSUExampleScenario3.node[146].veinsmobility posx ETV
vector 729 RSUExampleScenario3.node[146].veinsmobility posy ETV
vector 730 RSUExampleScenario3.node[147].veinsmobility posx ETV
vector 731 RSUExampleScenario3.node[147].veinsmobility posy ETV
vector 732 RSUExampleScenario3.node[145].veinsmobility acceleration ETV
vector 733 RSUExampleScenario3.node[145].veinsmobility co2emission ETV
97	420337 4733 15853 850743 26 192 167 0.87061618081309 14.519596555033 391.05258664949 1569.2094758988
96	425070 5224 15853 850743 26 192 167 -1.1528840671013 2.1251619343599 19.381047018653 53.97659109224
94	430294 4910 14225 850743 25 192 168 2.7585257882695 22.139572806922 1987.5438962259 26705.160487105
89	435204 3096 12988 850743 24 192 169 20.2 23.4 3705 81655.08
88	438300 4932 12988 850743 24 192 169 30.247975280737 2007.8413433306 140475.88084209 171585170.10616
vector 734 RSUExampleScenario3.node[146].veinsmobility speed ETV
vector 735 RSUExampleScenario3.node[147].veinsmobility speed ETV
131	443362 4607 28817 857903 34 193 160 0.973 14.689870474382 409.85541948815 1882.572177342
130	447969 5146 28817 857903 34 193 160 -1.8597321378959 2.1556418343587 19.719837262699 75.014722048426
125	453115 4874 26716 857903 33 193 161 3.7291120960707 23.44894935877 1983.2536758984 27695.578913883
123	457989 3141 25119 857903 32 193 162 20.2 23.4 3592.4 80054.48
122	461130 4904 25119 857903 32 193 162 30.629472207775 2004.5586947099 143545.35273239 174565570.59352
vector 736 RSUExampleScenario3.node[146].veinsmobility acceleration ETV
vector 737 RSUExampleScenario3.node[146].veinsmobility co2emission ETV
vector 738 RSUExampleScenario3.node[147].veinsmobility acceleration ETV
vector 739 RSUExampleScenario3.node[147].veinsmobility co2emission ETV
vector 740 RSUExampleScenario3.node[148].veinsmobility posx ETV
vector 741 RSUExampleScenario3.node[148].veinsmobility posy ETV
vector 742 RSUExampleScenario3.node[149].veinsmobility posx ETV
vector 743 RSUExampleScenario3.node[149].veinsmobility posy ETV
93	466576 4864 12988 874465 24 195 172 0.973 14.26385303779 399.32771503951 1500.3071057416
92	471440 5398 12988 874465 24 195 172 -1.2043674836093 2.1915381943342 18.689428131148 45.790486856703
87	476838 5057 11701 874465 23 195 173 4.0193308592545 22.770511272288 2002.7163231999 26595.228539254
83	481895 3187 10411 874465 22 195 174 20.2 23.4 3770.8 82160.56
82	485082 5074 10411 874465 22 195 174 31.206028561198 2024.1198811452 144784.05854216 175699769.99479
vector 744 RSUExampleScenario3.node[148].veinsmobility speed ETV
vector 745 RSUExampleScenario3.node[149].veinsmobility speed ETV
197	490286 4158 69837 881658 52 196 145 0.973 13.654650616179 394.48340659415 1906.8246252628
196	494444 4682 69837 881658 52 196 145 -1.3319979909331 2.1416943305917 19.421026776575 78.039118125012
194	499126 4451 66684 881658 51 196 146 2.1555410690547 21.657236297718 1997.5607532685 29700.077022288
189	503577 2877 64283 881658 50 196 147 20.2 23.4 3292.6 74073.4
188	506454 4467 64283 881658 50 196 147 30.1 2016.6344830728 134033.56606491 173183369.05675
vector 746 RSUExampleScenario3.node[150].veinsmobility posx ETV
vector 747 RSUExampleScenario3.node[150].veinsmobility posy ETV
vector 748 RSUExampleScenario3.node[148].veinsmobility acceleration ETV
vector 749 RSUExampleScenario3.node[148].veinsmobility co2emission ETV
vector 750 RSUExampleScenario3.node[149].veinsmobility acceleration ETV
vector 751 RSUExampleScenario3.node[149].veinsmobility co2emission ETV
vector 752 RSUExampleScenario3.node[151].veinsmobility posx ETV
vector 753 RSUExampleScenario3.node[151].veinsmobility posy ETV
vector 754 RSUExampleScenario3.node[150].veinsmobility speed ETV
vector 755 RSUExampleScenario3.node[150].veinsmobility acceleration ETV
vector 756 RSUExampleScenario3.node[150].veinsmobility co2emission ETV
vector 757 RSUExampleScenario3.node[151].veinsmobility speed ETV
39	511736 5382 473 906669 10 199 190 0.973 9.5232335318841 372.89511102669 986.69278115233
38	517118 5952 473 906669 10 199 190 -0.83377378345685 2.184660474197 14.003393349392 37.271617743494
35	523070 5550 316 906669 9 199 191 2.475773958425 16.575541145139 1994.5985604011 21981.24686788
29	528620 3481 309 906669 8 199 192 20.2 23.4 4070.4 86714.88
28	532101 5568 309 906669 8 199 192 30.125935093765 2017.6929990756 177881.92519772 227524913.02835
vector 758 RSUExampleScenario3.node[152].veinsmobility posx ETV
vector 759 RSUExampleScenario3.node[152].veinsmobility posy ETV
vector 760 RSUExampleScenario3.node[153].veinsmobility posx ETV
vector 761 RSUExampleScenario3.node[153].veinsmobility posy ETV
vector 762 RSUExampleScenario3.node[151].veinsmobility acceleration ETV
vector 763 RSUExampleScenario3.node[151].veinsmobility co2emission ETV
vector 764 RSUExampleScenario3.node[152].veinsmobility speed ETV
vector 765 RSUExampleScenario3.node[153].veinsmobility speed ETV
vector 766 RSUExampleScenario3.node[152].veinsmobility acceleration ETV
vector 767 RSUExampleScenario3.node[152].veinsmobility co2emission ETV
vector 768 RSUExampleScenario3.node[153].veinsmobility acceleration ETV
vector 769 RSUExampleScenario3.node[153].veinsmobility co2emission ETV
vector 770 RSUExampleScenario3.node[154].veinsmobility posx ETV
vector 771 RSUExampleScenario3.node[154].veinsmobility posy ETV
vector 772 RSUExampleScenario3.node[155].veinsmobility posx ETV
vector 773 RSUExampleScenario3.node[155].veinsmobility posy ETV
49	538740 5473 1773 939174 13 203 191 0.973 6.2352698112764 346.63122311614 718.94450235001
48	544213 6030 1773 939174 13 203 191 -0.77268902205944 1.9488852048269 7.7516457868935 22.058289615806
45	550243 5591 1046 939174 12 203 192 3.1058856511601 10.955698839466 1998.8848005722 21121.049361258
43	555834 3514 474 939174 11 203 193 20.2 23.4 4167.4 90471.4
42	559348 5614 474 939174 11 203 193 30.348874044179 2024.7300448454 190377.56331154 256333180.59451
vector 774 RSUExampleScenario3.node[154].veinsmobility speed ETV
vector 775 RSUExampleScenario3.node[155].veinsmobility speed ETV
vector 776 RSUExampleScenario3.node[156].veinsmobility posx ETV
vector 777 RSUExampleScenario3.node[156].veinsmobility posy ETV
vector 778 RSUExampleScenario3.node[157].veinsmobility posx ETV
vector 779 RSUExampleScenario3.node[157].veinsmobility posy ETV
vector 780 RSUExampleScenario3.node[154].veinsmobility acceleration ETV
vector 781 RSUExampleScenario3.node[154].veinsmobility co2emission ETV
vector 782 RSUExampleScenario3.node[155].veinsmobility acceleration ETV
vector 783 RSUExampleScenario3.node[155].veinsmobility co2emission ETV
159	565634 4827 44956 956460 42 205 164 0.973 8.1474822752722 341.76913527032 940.23665323781
158	570461 5363 44956 956460 42 205 164 -1.2580242247826 2.2927872782014 10.064269139228 40.290125815478
154	575824 5019 42382 956460 41 205 165 3.3517089199235 13.424435700206 1987.3215110645 24673.347194702
151	580843 3237 40425 956460 40 205 166 20.2 23.4 3673.2 81686.64
150	584080 5051 40425 956460 40 205 166 30.602845218949 2011.9444955888 161332.96499263 214003192.0247
vector 784 RSUExampleScenario3.node[156].veinsmobility speed ETV
vector 785 RSUExampleScenario3.node[157].veinsmobility speed ETV
vector 786 RSUExampleScenario3.node[156].veinsmobility acceleration ETV
vector 787 RSUExampleScenario3.node[156].veinsmobility co2emission ETV
vector 788 RSUExampleScenario3.node[157].veinsmobility acceleration ETV
vector 789 RSUExampleScenario3.node[157].veinsmobility co2emission ETV
229	589547 4346 92649 973496 60 207 148 0.973 10.154156678032 359.86504536625 1360.9260136796
228	593893 4851 92649 973496 60 207 148 -1.4808830399138 2.0302453238377 12.970036291185 56.256289451478
224	598744 4553 89144 973496 59 207 149 2.4950581063281 18.454305965381 1993.9120590344 29701.027614607
219	603297 2953 86472 973496 58 207 150 20.2 23.4 3407.6 77669.36
218	606250 4592 86472 973496 58 207 150 30.125817950676 2018.2596548642 131436.85888381 172334806.91852
vector 790 RSUExampleScenario3.node[158].veinsmobility posx ETV
vector 791 RSUExampleScenario3.node[158].veinsmobility posy ETV
vector 792 RSUExampleScenario3.node[159].veinsmobility posx ETV
vector 793 RSUExampleScenario3.node[159].veinsmobility posy ETV
241	611098 4251 101888 980901 63 208 146 0.973 9.9508768720767 362.58837457 1357.539232182
240	615349 4757 101888 980901 63 208 146 -1.2942389861988 2.2475193434558 13.64474118595 56.16754501237
237	620106 4504 98684 980901 62 208 147 3.2393627776655 18.45572045452 1988.8557366789 29695.234161211
233	624610 2919 95360 980901 61 208 148 20.2 23.4 3354.4 76295.2
232	627529 4532 95360 980901 61 208 148 30.466257941015 2012.2614666074 130243.33398585 170305002.90542
vector 794 RSUExampleScenario3.node[158].veinsmobility speed ETV
vector 795 RSUExampleScenario3.node[159].veinsmobility speed ETV
19	632191 5914 164 988371 5 209 205 0.973 5.8160020268372 354.98701236335 666.44429874081
18	638105 6450 164 988371 5 209 205 -0.33188875468946 2.0739333898178 7.3120358085867 15.04669239624
15	644555 5965 69 988371 4 209 206 3.001584746758 10.367340372812 1991.9336014453 19632.644389501
9	650520 3532 62 988371 3 209 207 20.2 23.4 4306.2 89905.56
8	654052 5793 62 988371 3 209 207 30.247751105301 2018.7253070793 200800.58114782 268653033.45627
111	659845 5189 20227 988371 29 209 181 0.973 10.311956497052 390.79193398461 1346.9006383467
110	665034 5865 20227 988371 29 209 181 -1.0437206952882 2.1148044203385 14.477460597214 61.738037594342
104	670899 5510 18441 988371 28 209 182 3.6056898217482 18.489021783678 1985.2356241125 24991.823819253
101	676409 3551 17084 988371 27 209 183 20.2 23.4 3923.8 84577.24
100	679960 5538 17084 988371 27 209 183 30.597018654731 2006.905877584 153804.72907371 185025444.56583
vector 796 RSUExampleScenario3.node[158].veinsmobility acceleration ETV
vector 797 RSUExampleScenario3.node[158].veinsmobility co2emission ETV
vector 798 RSUExampleScenario3.node[159].veinsmobility acceleration ETV
vector 799 RSUExampleScenario3.node[159].veinsmobility co2emission ETV
vector 800 RSUExampleScenario3.node[160].veinsmobility posx ETV
vector 801 RSUExampleScenario3.node[160].veinsmobility posy ETV
vector 802 RSUExampleScenario3.node[161].veinsmobility posx ETV
vector 803 RSUExampleScenario3.node[161].veinsmobility posy ETV
81	686040 5267 9357 1005524 21 211 191 0.973 8.8449272922313 385.81141407406 1229.608225666
80	691307 5983 9357 1005524 21 211 191 -1.906894424345 2.1672890449176 9.7813120410931 72.165728190965
75	697290 5613 8046 1005524 20 211 192 3.4685585508029 15.435560151057 1997.9737299621 21164.712610546
73	702903 3540 7049 1005524 19 211 193 20.2 23.4 4081 86704.36
72	706443 5641 7049 1005524 19 211 193 30.59711770206 2023.5981032266 195282.43249988 263442999.80487
231	712084 4453 92649 1005524 60 211 152 0.973 11.197571735869 373.61179364727 1486.2645059782
230	716537 4944 92649 1005524 60 211 152 -1.0342900116777 2.0752168761822 16.031168696699 46.81225999496
225	721481 4685 89144 1005524 59 211 153 3.5211243222124 19.625011097713 1999.2198894049 30096.440420846
221	726166 3034 86472 1005524 58 211 154 23.4 23.4 3603.6 84324.24
220	729200 4711 86472 1005524 58 211 154 30.595935747922 2021.6432918422 128923.26123899 167772575.18132
vector 804 RSUExampleScenario3.node[160].veinsmobility speed ETV
vector 805 RSUExampleScenario3.node[161].veinsmobility speed ETV
236	734041 4463 98684 1012975 62 212 151 0.94922842764944 10.900978407433 372.9793897801 1408.5256266036
235	738504 4919 98684 1012975 62 212 151 -0.91079681026277 1.9640336659045 18.20627685426 43.041910761334
234	743423 4657 95360 1012975 61 212 152 2.1976462406508 20.403923094911 1996.960586113 30122.794490025
227	748080 3019 92649 1012975 60 212 153 23.4 23.4 3580.2 83776.68
226	751099 4682 92649 1012975 60 212 153 30.1 2016.7106768607 127746.88637186 165819668.96754
119	755781 5363 23648 1012975 31 212 182 0.973 8.1405102011227 350.55515278329 865.71261263569
118	761144 5931 23648 1012975 31 212 182 -0.99894758662003 2.0761358894105 9.7601156583683 35.098693489739
115	767075 5539 21704 1012975 30 212 183 2.723424704022 12.583130603207 1992.9508369477 22027.404603173
109	772614 3577 20227 1012975 29 212 184 20.2 23.4 3876.8 82055.36
108	776191 5585 20227 1012975 29 212 184 30.175807186425 2017.327345227 190223.05314353 258361589.85716
vector 806 RSUExampleScenario3.node[162].veinsmobility posx ETV
vector 807 RSUExampleScenario3.node[162].veinsmobility posy ETV
vector 808 RSUExampleScenario3.node[163].veinsmobility posx ETV
vector 809 RSUExampleScenario3.node[163].veinsmobility posy ETV
vector 810 RSUExampleScenario3.node[160].veinsmobility acceleration ETV
vector 811 RSUExampleScenario3.node[160].veinsmobility co2emission ETV
vector 812 RSUExampleScenario3.node[161].veinsmobility acceleration ETV
vector 813 RSUExampleScenario3.node[161].veinsmobility co2emission ETV
246	782318 4430 108017 1022715 65 213 149 0.94233065987391 9.5233773709576 356.66417404218 1170.345661561
245	786748 4856 108017 1022715 65 213 149 -0.61750844648288 1.9021957578976 15.866714744654 32.005289101922
244	791604 4600 104689 1022715 64 213 150 2.9376999733021 18.804414717956 1988.0952728876 29960.750368455
239	796204 2986 101888 1022715 63 213 151 23.4 23.4 3533.4 82681.56
238	799190 4637 101888 1022715 63 213 151 30.249540790867 2010.2723040793 126524.40645586 163836628.57744
vector 814 RSUExampleScenario3.node[162].veinsmobility speed ETV
vector 815 RSUExampleScenario3.node[163].veinsmobility speed ETV
vector 816 RSUExampleScenario3.node[162].veinsmobility acceleration ETV
vector 817 RSUExampleScenario3.node[162].veinsmobility co2emission ETV
vector 818 RSUExampleScenario3.node[163].veinsmobility acceleration ETV
vector 819 RSUExampleScenario3.node[163].veinsmobility co2emission ETV
149	804243 5301 38594 1039771 39 215 177 0.973 7.3160299549939 340.04908721066 771.6431498749
148	809544 5833 38594 1039771 39 215 177 -1.090637737374 2.095145847383 8.2262880411755 27.877575653224
145	815377 5415 36264 1039771 38 215 178 3.3351473407878 11.633245373189 1998.0402698594 22669.395402274
141	820792 3496 34427 1039771 37 215 179 20.2 23.4 3801.4 81131.32
140	824288 5448 34427 1039771 37 215 179 30.466561444084 2023.9744965024 180112.88750809 242134671.20673
vector 820 RSUExampleScenario3.node[164].veinsmobility posx ETV
vector 821 RSUExampleScenario3.node[164].veinsmobility posy ETV
vector 822 RSUExampleScenario3.node[165].veinsmobility posx ETV
vector 823 RSUExampleScenario3.node[165].veinsmobility posy ETV
vector 824 RSUExampleScenario3.node[164].veinsmobility speed ETV
vector 825 RSUExampleScenario3.node[165].veinsmobility speed ETV
vector 826 RSUExampleScenario3.node[166].veinsmobility posx ETV
vector 827 RSUExampleScenario3.node[166].veinsmobility posy ETV
vector 828 RSUExampleScenario3.node[164].veinsmobility acceleration ETV
vector 829 RSUExampleScenario3.node[164].veinsmobility co2emission ETV
vector 830 RSUExampleScenario3.node[165].veinsmobility acceleration ETV
vector 831 RSUExampleScenario3.node[165].veinsmobility co2emission ETV
199	830536 4942 69837 1064427 52 218 167 0.973 8.1138626438462 347.28559182699 921.52843265477
198	835478 5495 69837 1064427 52 218 167 -1.3581569725272 2.1372234007763 10.335372946195 38.194859800078
195	840973 5136 66684 1064427 51 218 168 3.0464011066598 13.485904853985 1993.4048055056 24606.960939074
191	846109 3325 64283 1064427 50 218 169 20.2 23.4 3663.4 79841.32
190	849434 5166 64283 1064427 50 218 169 30.350055064052 2016.8097715808 160293.16486241 210942438.94037
vector 832 RSUExampleScenario3.node[167].veinsmobility posx ETV
vector 833 RSUExampleScenario3.node[167].veinsmobility posy ETV
vector 834 RSUExampleScenario3.node[166].veinsmobility speed ETV
266	854793 4491 124678 1071874 70 219 150 0.973 11.551829464932 379.43800327197 1465.9515533604
265	859284 4939 124678 1071874 70 219 150 -1.5226277857456 1.9989801075938 17.465520810952 45.596514771447
264	864223 4648 121158 1071874 69 219 151 2.3711501712619 19.954357833941 2000.3812543702 31681.665857131
257	868871 3017 118198 1071874 68 219 152 23.4 23.4 3556.8 83229.12
256	871888 4656 118198 1071874 68 219 152 30.1 2021.2086278861 119892.46826677 148573157.48314
vector 835 RSUExampleScenario3.node[166].veinsmobility acceleration ETV
vector 836 RSUExampleScenario3.node[166].veinsmobility co2emission ETV
vector 837 RSUExampleScenario3.node[167].veinsmobility speed ETV
296	876752 4306 153191 1080517 78 220 143 0.973 11.500447555852 381.5653251937 1550.2926387437
295	881058 4694 153191 1080517 78 220 143 -1.4866918640317 2.1486213378422 18.894096757299 44.473040919612
294	885752 4428 149328 1080517 77 220 144 2.6521723801095 21.546269137408 1992.6391340878 32613.620020989
287	890180 2886 146102 1080517 76 220 145 23.4 23.4 3393 79396.2
286	893066 4468 146102 1080517 76 220 145 30.176467467469 2014.1297476162 115667.79607017 144636691.3986
vector 838 RSUExampleScenario3.node[168].veinsmobility posx ETV
vector 839 RSUExampleScenario3.node[168].veinsmobility posy ETV
vector 840 RSUExampleScenario3.node[169].veinsmobility posx ETV
vector 841 RSUExampleScenario3.node[169].veinsmobility posy ETV
vector 842 RSUExampleScenario3.node[167].veinsmobility acceleration ETV
vector 843 RSUExampleScenario3.node[167].veinsmobility co2emission ETV
vector 844 RSUExampleScenario3.node[168].veinsmobility speed ETV
vector 845 RSUExampleScenario3.node[169].veinsmobility speed ETV
vector 846 RSUExampleScenario3.node[168].veinsmobility acceleration ETV
vector 847 RSUExampleScenario3.node[168].veinsmobility co2emission ETV
vector 848 RSUExampleScenario3.node[169].veinsmobility acceleration ETV
vector 849 RSUExampleScenario3.node[169].veinsmobility co2emission ETV
vector 850 RSUExampleScenario3.node[170].veinsmobility posx ETV
vector 851 RSUExampleScenario3.node[170].veinsmobility posy ETV
vector 852 RSUExampleScenario3.node[171].veinsmobility posx ETV
vector 853 RSUExampleScenario3.node[171].veinsmobility posy ETV
vector 854 RSUExampleScenario3.node[170].veinsmobility speed ETV
vector 855 RSUExampleScenario3.node[171].veinsmobility speed ETV
vector 856 RSUExampleScenario3.node[172].veinsmobility posx ETV
vector 857 RSUExampleScenario3.node[172].veinsmobility posy ETV
vector 858 RSUExampleScenario3.node[173].veinsmobility posx ETV
vector 859 RSUExampleScenario3.node[173].veinsmobility posy ETV
vector 860 RSUExampleScenario3.node[170].veinsmobility acceleration ETV
vector 861 RSUExampleScenario3.node[170].veinsmobility co2emission ETV
vector 862 RSUExampleScenario3.node[171].veinsmobility acceleration ETV
vector 863 RSUExampleScenario3.node[171].veinsmobility co2emission ETV
vector 864 RSUExampleScenario3.node[172].veinsmobility speed ETV
vector 865 RSUExampleScenario3.node[173].veinsmobility speed ETV
vector 866 RSUExampleScenario3.node[172].veinsmobility acceleration ETV
vector 867 RSUExampleScenario3.node[172].veinsmobility co2emission ETV
vector 868 RSUExampleScenario3.node[173].veinsmobility acceleration ETV
vector 869 RSUExampleScenario3.node[173].veinsmobility co2emission ETV
vector 870 RSUExampleScenario3.node[174].veinsmobility posx ETV
vector 871 RSUExampleScenario3.node[174].veinsmobility posy ETV
vector 872 RSUExampleScenario3.node[175].veinsmobility posx ETV
vector 873 RSUExampleScenario3.node[175].veinsmobility posy ETV
[...]
13485	96732836 1275 37109133 37554456 3550 3600 51 23.4 23.4 1193.4 27925.56
13486	96734111 1793 37117370 37554456 3551 3600 50 4.1088527183134 14.450913382871 436.19966278709 4002.1922696614
13487	96735904 1795 37117370 37554456 3551 3600 50 3.6773537874019 14.782753469911 544.16727679447 6113.988335808
13488	96737699 1761 37128233 37554456 3552 3600 49 30.248049902585 450.90511027284 12404.808550599 3966685.0779636
13489	96739460 1225 37128233 37554456 3552 3600 49 20.2 20.2 989.8 19993.96
13490	96740685 1749 37128233 37554456 3552 3600 49 30.1 553.53548473365 14228.721464162 5389053.655339
13491	96742434 1225 37128233 37554456 3552 3600 49 23.4 23.4 1146.6 26830.44
13492	96743659 1861 37128233 37554456 3552 3600 49 -1.1326690140394 1.9512288815295 2.8919222177905 22.795055453987
13493	96745520 1639 37128233 37554456 3552 3600 49 0.973 7.9752423797205 92.68677205477 301.82210173492
13494	96747159 1848 37128233 37554456 3552 3600 49 -0.82897736443004 2.0232230873359 5.9809556650481 25.665711672323
13495	96749007 1610 37128233 37554456 3552 3600 49 0.973 7.135807671857 106.2702098183 374.31253553274
13496	96750617 1725 37136364 37554456 3553 3600 48 2.9184161479495 12.356787138297 423.3468671315 3958.0891752504
13497	96752342 1722 37136364 37554456 3553 3600 48 2.2847385921513 16.268992212884 527.6679947349 6100.1429450159
13498	96754064 1787 37147157 37554456 3554 3600 47 -0.57940282036208 1.9774579684203 4.1869705446767 19.475492021344
13499	96755851 1559 37147157 37554456 3554 3600 47 0.973 7.1309771796839 84.546626875714 240.33251133365
13500	96757410 1772 37147157 37554456 3554 3600 47 -0.82302999135765 2.121386868183 7.6903589640089 32.938857067871
13501	96759182 1530 37147157 37554456 3554 3600 47 0.973 8.8782994155186 106.96276000304 446.95333724912
13502	96760712 1651 37155127 37554456 3555 3600 46 30.784079601336 436.09015573974 11441.339174231 3558861.7695572
13503	96762363 1150 37155127 37554456 3555 3600 46 20.2 20.2 929.2 18769.84
13504	96763513 1647 37155127 37554456 3555 3600 46 30.253108224403 535.4251039525 13080.503778192 4825069.7681234
13505	96765160 1150 37155127 37554456 3555 3600 46 23.4 23.4 1076.4 25187.76
13506	96766310 1613 37163200 37554456 3556 3600 45 3.669694283165 14.84892270987 407.56212376802 3959.1370547379
13507	96767923 1619 37163200 37554456 3556 3600 45 2.8387058478593 16.613063893855 509.29811147124 6076.6443200237
13508	96769542 1579 37173850 37554456 3557 3600 44 30.125634190824 421.25099215537 10512.889671341 3170711.5490677
13509	96771121 1100 37173850 37554456 3557 3600 44 20.2 20.2 888.8 17953.76
13510	96772221 1669 37173850 37554456 3557 3600 44 -0.67673746684157 1.9963423287589 3.3778922315151 24.009862871227
13511	96773890 1403 37173850 37554456 3557 3600 44 0.973 8.2499315358971 83.593491721677 309.1880720637
13512	96775293 1660 37173850 37554456 3557 3600 44 -0.90410702794401 2.195981762982 7.2102841543833 33.072186956696
13513	96776953 1430 37173850 37554456 3557 3600 44 0.973 9.2715737074391 103.1178190843 460.79617489193
13514	96778383 1544 37181761 37554456 3558 3600 43 30.764250065969 517.30158793537 11950.957576237 4290279.7610207
13515	96779927 1075 37181761 37554456 3558 3600 43 23.4 23.4 1006.2 23545.08
13516	96781002 1540 37181761 37554456 3558 3600 43 2.5387015295493 16.253323612888 394.36638830532 3964.5389228273
13517	96782542 1585 37190996 37554456 3559 3600 42 -1.025874905738 2.0701431336836 4.541650173172 32.068977410437
13518	96784127 1338 37190996 37554456 3559 3600 42 0.973 10.399559037659 88.355426433134 397.31888257225
13519	96785465 1502 37190996 37554456 3559 3600 42 3.5325957533148 19.19335788658 490.02908479445 6069.2228319686
13520	96786967 1471 37200164 37554456 3560 3600 41 30.470250980661 406.38194112049 9559.7569781058 2799694.494526
13521	96788438 1025 37200164 37554456 3560 3600 41 20.2 20.2 828.2 16729.64
13522	96789463 1470 37200164 37554456 3560 3600 41 30.125848199178 498.91589185543 10883.943133309 3786082.3155825
13523	96790933 1025 37200164 37554456 3560 3600 41 23.4 23.4 959.4 22449.96
13524	96791958 1537 37200164 37554456 3560 3600 41 -1.2734108011102 2.1871568237292 6.7395479943659 39.773465197664
13525	96793495 1325 37200164 37554456 3560 3600 41 0.973 11.904100170514 109.50071695666 620.06891485857
13526	96794820 1439 37208119 37554456 3561 3600 40 3.1871961525434 16.849438191031 378.36523363779 3955.8297320207
13527	96796259 1438 37208119 37554456 3561 3600 40 2.5280783684702 19.810653016848 473.44613284483 6053.4129606664
13528	96797697 1471 37218695 37554456 3562 3600 39 -1.214937877025 2.0605908483965 3.9819760748215 33.060256847059
13529	96799168 1221 37218695 37554456 3562 3600 39 0.973 10.196638123558 86.551890823951 416.57952509431
13530	96800389 1465 37218695 37554456 3562 3600 39 -1.262125661719 2.1122955198539 7.8953927754944 42.233114719398
13531	96801854 1269 37218695 37554456 3562 3600 39 0.973 11.298015463814 109.59036452344 648.3000469872
13532	96803123 1368 37226551 37554456 3563 3600 38 30.976474252207 391.48322723377 8484.0965937533 2401068.6784722
13533	96804491 950 37226551 37554456 3563 3600 38 20.2 20.2 767.6 15505.52
13534	96805441 1363 37226551 37554456 3563 3600 38 30.46298292766 480.45024584239 9809.1756570728 3309713.5490123
13535	96806804 950 37226551 37554456 3563 3600 38 23.4 23.4 889.2 20807.28
13536	96807754 1328 37234455 37554456 3564 3600 37 3.7952706902029 13.885595194564 362.86758212352 3875.206606355
13537	96809082 1328 37234455 37554456 3564 3600 37 3.3053592938071 20.553409921308 453.8072921068 6033.2206287041
13538	96810410 1288 37244947 37554456 3565 3600 36 30.176212497749 443.1647927506 8343.8759259036 2565193.3355379
13539	96811698 900 37244947 37554456 3565 3600 36 20.2 23.4 800.8 17898.4
13540	96812598 1360 37244947 37554456 3565 3600 36 -1.0045978871604 2.0895352744986 3.4386044980515 22.703380991137
13541	96813958 1182 37244947 37554456 3565 3600 36 0.973 8.6967436401214 76.145053196053 275.35618088804
13542	96815140 1337 37244947 37554456 3565 3600 36 -1.5149664590314 2.2065627257014 7.197099787413 43.496734774673
13543	96816477 1154 37244947 37554456 3565 3600 36 0.973 11.624984501109 108.38074511576 693.01100551166
13544	96817631 1256 37252839 37554456 3566 3600 35 31.164308744018 461.82413196914 8703.8274498813 2838688.4798132
13545	96818887 875 37252839 37554456 3566 3600 35 23.4 23.4 819 19164.6
13546	96819762 1255 37252839 37554456 3566 3600 35 2.7628290496374 16.354254108023 417.98974243367 5293.9506110517
13547	96821017 1279 37262281 37554456 3567 3600 34 -0.57970203513334 2.1322927674232 8.0149789084455 29.790286608952
13548	96822296 1082 37262281 37554456 3567 3600 34 0.973 10.439262320562 85.778930928251 423.67464347151
13549	96823378 1222 37262281 37554456 3567 3600 34 3.9781058225235 19.356530022012 434.88297454691 6017.6988669808
13550	96824600 1185 37271497 37554456 3568 3600 33 30.601471261372 388.00950795039 6975.6502893402 1919647.8051761
13551	96825785 825 37271497 37554456 3568 3600 33 20.2 23.4 682.6 14162.92
13552	96826610 1182 37271497 37554456 3568 3600 33 30.176304513372 424.34296152524 7344.9449161634 2181758.6504586
13553	96827792 825 37271497 37554456 3568 3600 33 23.4 23.4 772.2 18069.48
13554	96828617 1234 37271497 37554456 3568 3600 33 -1.2987596435549 2.0469574736035 6.6443452991289 37.254653918173
13555	96829851 1096 37271497 37554456 3568 3600 33 0.973 11.251292259807 99.426900871175 601.31736643697
13556	96830947 1148 37279436 37554456 3569 3600 32 3.619857916542 14.865478629725 361.17832697823 4396.8801029737
13557	96832095 1147 37279436 37554456 3569 3600 32 2.6579145372405 19.540889551467 399.03352886643 5402.2415019581
13558	96833242 1099 37289939 37554456 3570 3600 31 30.1 298.91470436209 4797.3279541528 963854.56955663
13559	96834341 775 37289939 37554456 3570 3600 31 20.2 20.2 626.2 12649.24
13560	96835116 1168 37289939 37554456 3570 3600 31 -1.3084917782829 1.9728860801389 6.8292570533903 30.07677999609
13561	96836284 1024 37289939 37554456 3570 3600 31 0.973 7.9230979825903 83.687076454739 353.07504866292
13562	96837308 1158 37289939 37554456 3570 3600 31 -1.0005895752349 2.0057946940442 8.2128321914075 37.999541866004
13563	96838466 992 37289939 37554456 3570 3600 31 0.973 10.558855112388 94.180833309437 582.31106853518
13564	96839458 1079 37297876 37554456 3571 3600 30 30.609436333421 404.57697081946 6230.465189094 1742529.8440373
13565	96840537 750 37297876 37554456 3571 3600 30 23.4 23.4 702 16426.8
13566	96841287 1072 37297876 37554456 3571 3600 30 2.2136191826535 9.7648197704579 272.74608910373 2572.5178680149
13567	96842359 1109 37307143 37554456 3572 3600 29 -0.069243442218285 2.132004719614 7.4690006249272 14.39597121213
13568	96843468 1040 37307143 37554456 3572 3600 29 1.4985418927553 5.4952207671868 59.953236202585 158.86903909683
13569	96844508 1038 37307143 37554456 3572 3600 29 3.4889352611005 15.710748501617 377.90811306629 5220.7830347933
13570	96845546 1002 37316639 37554456 3573 3600 28 30.249613919091 281.46389697103 4176.6076363379 798796.39696358
13571	96846548 700 37316639 37554456 3573 3600 28 20.2 20.2 565.6 11425.12
13572	96847248 995 37316639 37554456 3573 3600 28 30.1 359.07455860208 4941.9536508621 1184434.3844693
13573	96848243 700 37316639 37554456 3573 3600 28 23.4 23.4 655.2 15331.68
13574	96848943 1053 37316639 37554456 3573 3600 28 -0.73489913309619 2.1600343134347 7.738480680579 25.033171576009
13575	96849996 917 37316639 37554456 3573 3600 28 0.973 8.6136619668447 77.322108641611 353.55109144276
13576	96850913 969 37324684 37554456 3574 3600 27 2.8787915503275 11.628976690938 254.87519307128 2493.0699811418
13577	96851882 967 37324684 37554456 3574 3600 27 2.3383438839011 13.921937313152 334.46974743304 4409.8849473929
13578	96852849 983 37335440 37554456 3575 3600 26 -0.49273182416648 2.0012675928441 6.8857813292991 16.740316152936
13579	96853832 889 37335440 37554456 3575 3600 26 0.973 6.8930510881682 56.196636552347 180.6525928493
13580	96854721 988 37335440 37554456 3575 3600 26 -0.26828117145277 2.1872197314049 11.219577585763 22.531037145859
13581	96855709 929 37335440 37554456 3575 3600 26 1.1176611466858 7.8113512962571 74.580213374737 300.05122347002
13582	96856638 895 37343476 37554456 3576 3600 25 30.748809438851 315.73079024991 3927.6176927863 821540.10838375
13583	96857533 625 37343476 37554456 3576 3600 25 20.2 23.4 553 12293.8
13584	96858158 894 37343476 37554456 3576 3600 25 30.344590159895 337.20085552985 4198.1571682003 954753.98742208
13585	96859052 625 37343476 37554456 3576 3600 25 23.4 23.4 585 13689
13586	96859677 863 37351561 37554456 3577 3600 24 3.5717972057547 13.992755732798 290.56953727264 3703.4582215561
13587	96860540 861 37351561 37554456 3577 3600 24 2.9732513763964 16.639361483678 312.41770526294 4360.0622621511
13588	96861401 814 37362117 37554456 3578 3600 23 30.1 263.57166538598 3203.5274091263 587153.35824016
13589	96862215 575 37362117 37554456 3578 3600 23 20.2 20.2 464.6 9384.92
13590	96862790 861 37362117 37554456 3578 3600 23 -0.67399343543657 2.1548678693036 10.216005336491 21.546271728494
13591	96863651 792 37362117 37554456 3578 3600 23 0.973 8.1737172691006 70.364353286094 300.28221147719
13592	96864443 862 37362117 37554456 3578 3600 23 -0.57301832195266 2.0417966414592 10.841708945074 27.658593662477
13593	96865305 787 37362117 37554456 3578 3600 23 0.973 10.285891950587 72.938063032918 405.29112454029
13594	96866092 789 37370199 37554456 3579 3600 22 30.783510157815 293.74864295117 3256.3408678112 642488.13803162
13595	96866881 550 37370199 37554456 3579 3600 22 23.4 23.4 514.8 12046.32
13596	96867431 791 37370199 37554456 3579 3600 22 2.2298042521967 16.280511919839 237.58298054617 2810.3610146818
13597	96868222 783 37379629 37554456 3580 3600 21 -1.3700428397939 2.2696157782408 7.6551632466659 31.870597239401
13598	96869005 675 37379629 37554456 3580 3600 21 0.973 8.9623445802901 63.966561714117 339.5453338546
13599	96869680 755 37379629 37554456 3580 3600 21 3.7452971847412 15.467453704688 268.46284544845 3652.7042832401
13600	96870435 719 37388995 37554456 3581 3600 20 30.341411363736 244.64047295874 2569.4477333599 435443.73472762
13601	96871154 500 37388995 37554456 3581 3600 20 20.2 20.2 404 8160.8
13602	96871654 718 37388995 37554456 3581 3600 20 30.125468298009 269.78592609285 2629.1136996855 471579.55873668
13603	96872372 500 37388995 37554456 3581 3600 20 23.4 23.4 468 10951.2
13604	96872872 753 37388995 37554456 3581 3600 20 -0.31055273177944 2.0558362925611 10.149226229064 23.237378127232
13605	96873625 704 37388995 37554456 3581 3600 20 0.973 9.7047998320104 64.032355508009 337.16159332465
13606	96874329 679 37397023 37554456 3582 3600 19 2.8483103692772 16.922413025657 218.03123817981 2752.2524748655
13607	96875008 684 37397023 37554456 3582 3600 19 2.4472372147705 15.886565850775 245.53010513896 3497.3137604551
13608	96875692 667 37407702 37554456 3583 3600 18 -1.2521647282437 2.1748061075923 7.3202513026556 33.799722642642
13609	96876359 546 37407702 37554456 3583 3600 18 0.973 10.157433450663 60.777614433248 397.16942427801
13610	96876905 672 37407702 37554456 3583 3600 18 -0.41025547442034 2.1381555797299 12.057795444991 26.625716911913
13611	96877577 636 37407702 37554456 3583 3600 18 0.973 8.671108273859 64.632186999173 348.32075748964
13612	96878213 611 37415575 37554456 3584 3600 17 30.765455308592 191.0248550647 1729.9642252849 222427.22892116
13613	96878824 425 37415575 37554456 3584 3600 17 20.2 20.2 343.4 6936.68
13614	96879249 610 37415575 37554456 3584 3600 17 30.46569448342 242.39589754177 1976.2043836443 314703.32785908
13615	96879859 425 37415575 37554456 3584 3600 17 23.4 23.4 397.8 9308.52
13616	96880284 574 37423494 37554456 3585 3600 16 3.6402630910598 11.61431351294 164.62887949089 1788.1743338665
13617	96880858 575 37423494 37554456 3585 3600 16 3.1568624508004 19.383410563833 218.1014061001 3383.1007115289
13618	96881433 529 37433849 37554456 3586 3600 15 30.1 169.86666577635 1315.9295653012 148413.60324898
13619	96881962 375 37433849 37554456 3586 3600 15 20.2 20.2 303 6120.6
13620	96882337 564 37433849 37554456 3586 3600 15 -0.12324557997519 2.1027023326536 7.8559341964658 15.096705217479
13621	96882901 537 37433849 37554456 3586 3600 15 1.4631889053621 6.7964839796181 42.401090081137 165.81112142286
13622	96883438 551 37433849 37554456 3586 3600 15 -0.78671221963812 2.1683349951683 12.638090880627 32.811831430737
13623	96883989 479 37433849 37554456 3586 3600 15 0.973 11.434294313035 71.363847091592 543.13284390041
13624	96884468 504 37441717 37554456 3587 3600 14 30.984811755464 169.20229042522 1251.42901277 141126.89378663
13625	96884972 350 37441717 37554456 3587 3600 14 23.4 23.4 327.6 7665.84
13626	96885322 503 37441717 37554456 3587 3600 14 2.3039899621908 13.052188625054 145.02568995503 1673.7975381649
13627	96885825 484 37450857 37554456 3588 3600 13 -0.2873565655668 2.1073588696192 9.7771625261145 20.131123878857
13628	96886309 458 37450857 37554456 3588 3600 13 0.973 7.2883483936365 42.497487995833 196.82098996498
13629	96886767 467 37450857 37554456 3588 3600 13 3.6689040176137 13.249766738046 143.45447066208 1717.9621161019
13630	96887234 429 37459886 37554456 3589 3600 12 30.350692354438 107.03643860227 770.34835862256 57299.433223416
13631	96887663 300 37459886 37554456 3589 3600 12 20.2 20.2 242.4 4896.48
13632	96887963 429 37459886 37554456 3589 3600 12 30.12561639663 141.70416651649 868.48357039113 79522.902143241
13633	96888392 300 37459886 37554456 3589 3600 12 23.4 23.4 280.8 6570.72
13634	96888692 450 37459886 37554456 3589 3600 12 -0.094377609407529 2.0009027022216 9.4796199182009 18.076208185139
13635	96889142 431 37459886 37554456 3589 3600 12 1.6552140246042 7.7527831422957 43.425871506147 211.76220316316
13636	96889573 395 37467679 37554456 3590 3600 11 3.0033286807714 8.1699595350984 79.654080097509 606.50820939251
13637	96889968 393 37467679 37554456 3590 3600 11 2.448643398344 15.10330794955 117.75868440426 1483.8483891122
13638	96890361 377 37478040 37554456 3591 3600 10 -0.080689240018838 1.9892137110699 5.0659709247153 8.9836351401843
13639	96890738 359 37478040 37554456 3591 3600 10 1.3918206697444 4.7672754639476 23.07465087842 67.584686502552
13640	96891097 368 37478040 37554456 3591 3600 10 -0.19665619402931 2.0465654817852 12.429175657346 23.794383655903
13641	96891465 359 37478040 37554456 3591 3600 10 1.4268064359671 8.9071318090251 47.336022164376 281.52352081956
13642	96891824 324 37485697 37554456 3592 3600 9 30.765377850399 90.016003702382 505.45557071777 32075.273442309
13643	96892148 225 37485697 37554456 3592 3600 9 20.2 23.4 185 3811.88
13644	96892373 322 37485697 37554456 3592 3600 9 30.341087096675 101.35908865695 509.65129771147 33870.375987039
13645	96892695 225 37485697 37554456 3592 3600 9 23.4 23.4 210.6 4928.04
13646	96892920 286 37493418 37554456 3593 3600 8 3.5590624094363 9.644385796586 62.751799946072 527.24111574178
13647	96893206 287 37493418 37554456 3593 3600 8 2.8821531412297 16.64165438922 77.987993515085 925.2741586572
13648	96893493 240 37503414 37554456 3594 3600 7 30.1 66.37529270463 304.0396887091 14299.518252123
13649	96893733 175 37503414 37554456 3594 3600 7 20.2 20.2 141.4 2856.28
13650	96893908 257 37503414 37554456 3594 3600 7 -0.38149943918807 1.9120833690092 6.0853233871497 11.721592193646
13651	96894165 232 37503414 37554456 3594 3600 7 0.973 5.8533423065407 22.431173270976 92.522145490683
13652	96894397 252 37503414 37554456 3594 3600 7 1.8262343347352 2.0800415571849 13.75950124799 27.096669392613
13653	96894649 252 37503414 37554456 3594 3600 7 3.6170605603977 9.8588135493277 48.158247922482 365.21606766754
13654	96894901 216 37511046 37554456 3595 3600 6 30.788357703711 64.889261274374 267.36983858457 12765.75487968
13655	96895117 150 37511046 37554456 3595 3600 6 23.4 23.4 140.4 3285.36
13656	96895267 215 37511046 37554456 3595 3600 6 2.2123127104685 11.810132609117 41.529711462978 352.25793652206
13657	96895482 180 37519956 37554456 3596 3600 5 1.7238800308504 2.2103208061215 9.5978198986487 18.549916780271
13658	96895662 180 37519956 37554456 3596 3600 5 3.1670835069479 7.2541319798748 26.207950419983 150.71896080261
13659	96895842 180 37519956 37554456 3596 3600 5 3.7256090315035 11.486283340123 38.423957451468 333.04462980265
13660	96896022 144 37528863 37554456 3597 3600 4 30.246560371826 41.890399739826 140.40555402629 5007.6139806523
13661	96896166 100 37528863 37554456 3597 3600 4 20.2 20.2 80.8 1632.16
13662	96896266 144 37528863 37554456 3597 3600 4 30.125121384556 40.349910928955 137.13347439029 4763.099259251
13663	96896410 100 37528863 37554456 3597 3600 4 23.4 23.4 93.6 2190.24
13664	96896510 144 37528863 37554456 3597 3600 4 1.7786645097216 2.0761235437961 7.7606743086199 15.107310231002
13665	96896654 143 37528863 37554456 3597 3600 4 4.3107883411259 6.7277818338368 22.444615684828 129.7407434112
13666	96896797 108 37536579 37554456 3598 3600 3 2.8695100471689 6.6078403948186 14.283500978868 74.996725577355
13667	96896905 108 37536579 37554456 3598 3600 3 2.4382102108169 6.2233289292785 12.821738762324 61.981952890914
13668	96897013 72 37546859 37554456 3599 3600 2 1.8016898579383 1.9366404897114 3.7383303476497 6.9966627305875
13669	96897085 72 37546859 37554456 3599 3600 2 3.5952807506997 4.3245877857793 7.919868536479 31.628103193263
13670	96897157 72 37546859 37554456 3599 3600 2 1.7219894114113 2.0631293070503 3.7851187184616 7.2217500706224
13671	96897229 72 37546859 37554456 3599 3600 2 3.0438200099269 4.5268066083836 7.5706266183106 29.756818322537
13672	96897301 35 37554456 37554456 3600 3600 1 30.79524771555 30.79524771555 30.79524771555 948.34728186206
13673	96897336 25 37554456 37554456 3600 3600 1 20.2 20.2 20.2 408.04
13674	96897361 36 37554456 37554456 3600 3600 1 30.347086241167 30.347086241167 30.347086241167 920.94564332885
13675	96897397 25 37554456 37554456 3600 3600 1 23.4 23.4 23.4 547.56

